!-Generator IDFEditor 1.48
!-Option SortedOrder

!-NOTE: All comments with '!-' are ignored by the IDFEditor and are generated automatically.
!-      Use '!' comments if they need to be retained when using the IDFEditor.


!-   ===========  ALL OBJECTS IN CLASS: VERSION ===========

! The 90.1 Prototype Building Models were developed by Pacific Northwest National Laboratory (PNNL),
! under contract with the U.S. Department of Energy (DOE).  These building models were derived from
! DOE’s Commercial Reference Building Models with modifications based on input from the ASHRAE Standard 90.1 committee,
! the Advanced Energy Design Guide series, and building industry experts.
! The prototypes models were developed to quantify energy saving impacts from
! newly published editions of ASHRAE Standard 90.1.  The basic building descriptions can be found in the Scorecards
! posted at this website.  Detailed descriptions of the prototype model development and addenda modeling
! strategies can be found in the following  reports:
! "Achieving 30% Goal: Energy and Cost Saving Analysis of ASHRAE/IES Standard 90.1-2010."
! "Enhancements to ASHRAE Standard 90.1 Prototype Building Models"
! "Energy Savings Analysis: ANSI/ASHRAE/IES Standard 90.1-2016"
! "ANSI/ASHRAE/IES Standard 90.1-2013 Determination of Energy Savings: Quantitative Analysis"
!
! BEGIN ECONOMIZER MAP
! NOTE: no economizer map is created for this prototype due to water cooling
! END ECONOMIZER MAP
! Start SimMetaData
! CodeStandard=ASHRAE 90.1-2004
! Std62Version=2004
! RoofConstruction=Insulation Entirely Above Deck
! ExtWallConstruction=Mass
! End SimMetaData
! WeatherFile:  USA_CO_Denver-Aurora-Buckley.AFB.724695_TMY3.epw
! GPARM parameters as input:
!    Case = ASHRAE30pct_OfficeLarge_STD2007_Boise
!    weatherfile = USA_ID_Boise_TMY2.epw
!    basement_tempt = dummy.idf
!    avg_oa_tempt_ip = 49.91
!    maxdiff_oa_tempt_ip = 42.66
!    ext_wall_type = MassWall
!    nonres_ext_wall_ufactor = 0.51104367
!    roof_type = MetalDeckRoof
!    nonres_roof_ufactor = 0.272556624
!    roof_solar_absorp = 0.7
!    roof_emissivity = 0.9
!    nonres_window = Window_U_0.52_SHGC_0.40
!    sidelighting_control = no
!    LPD_office = 10.76391042
!    exterior_lights_watts = 62782.82
!    exterior_lights_watts_a =
!    exterior_lights_watts_b =
!    economizer = DifferentialDryBulb
!    skip_economizer_control = Yes
!    damper_sche = MinOA_MotorizedDamper_Sched
!    cc_sa_humidity = 0.007
!    condenser_pump_head = 179344.014
!    chilledwater_pump_head = 56045.00437
!    chilledwater_pump_secondary_head = 168135.0131
!    avg_oa_tempt = 9.95
!    maxdiff_oa_tempt = 23.7
!    infil = 0.001024128
!    oa_flow_per_area = 0.000431773
!    SAT_reset_switch = No
!    SAT_reset_T = NA
!    CAV_bas_ERV = No
!    economizer_lockout = NoLockout
!    eco_max_temp_limit = 12.77777778
!    heating_damper_act = normal
!    add_ck_vav_bot = No
!    add_ck_vav_mid = No
!    add_ck_vav_top = No
!    core_bottom_mdp = 0.3
!    perimeter_bot_zn_1_mdp = 0.3
!    perimeter_bot_zn_2_mdp = 0.3
!    perimeter_bot_zn_3_mdp = 0.3
!    perimeter_bot_zn_4_mdp = 0.3
!    core_mid_mdp = 0.3
!    perimeter_mid_zn_1_mdp = 0.3
!    perimeter_mid_zn_2_mdp = 0.3
!    perimeter_mid_zn_3_mdp = 0.3
!    perimeter_mid_zn_4_mdp = 0.3
!    core_top_mdp = 0.3
!    perimeter_top_zn_1_mdp = 0.3
!    perimeter_top_zn_2_mdp = 0.3
!    perimeter_top_zn_3_mdp = 0.3
!    perimeter_top_zn_4_mdp = 0.3
!    vav_bot_oaf = 2.45331744853129
!    vav_mid_oaf = 24.6940209131404
!    vav_top_oaf = 2.36624817385568
!    BLDG_ELEVATORS_LIGHTS_FAN_SCH = ELEV_LIGHT_FAN_SCH_24_7
!    BLDG_ELEVATORS_LIGHTS_FAN_POWER = 1942.8
!    bsmt_new = Zone5B_nonres_R7.5_OfficeLarge_Denver_STD2007_out.idf
!    osc_key_wall = surfPropOthSdCoefBasementAvgWall
!    osc_key_floor = surfPropOthSdCoefBasementAvgFloor
!    BLDG_EQUIP_SCH = BLDG_EQUIP_SCH_BASE
!    addendum_cd = no
!    PumpCurve_flag = pump_ride_on_curve
!    pv_generator = no
!    pv_surface_area = 0
!    STD189_overhang = no
!    swh_et = 0.803988738
!    swh_ua = 11.25413987
!    ext_lgt_sch = Exterior_Lgt_ALWAYS_ON
!    VAV_bot_WITH_REHEAT_ERV = No
!    VAV_mid_WITH_REHEAT_ERV = No
!    VAV_top_WITH_REHEAT_ERV = No
!    CAV_bas_ERV_power = 911.0574
!    VAV_bot_WITH_REHEAT_ERV_power = 1810.2552693212
!    VAV_mid_WITH_REHEAT_ERV_power = 1821.79600051782
!    VAV_top_WITH_REHEAT_ERV_power = 1747.78306474145
!    LTG_SCH_SET = LTG_SET_STD2007
!    transformer_size = 500000
!    transformer_eff = 0.979
!    economizer_coredatacenter = NoEconomizer
!    economizer_itcloset = NoEconomizer
!    HtgSetP_Sch = HTGSETP_SCH_YES_OPTIMUM
!    ClgSetP_Sch = CLGSETP_SCH_NO_SETBACK
!    wwr = 0.4
!    pipe_heat_loss = 8376.58
!    add_as = no
!    preheatcoil_exists = no
!    AddendumAF_TowerFan = No
!    skip_EMSprogram = yes
!    BoilerAM = No
!    OA_BASED_OPTIMUM_START_EMS = no
!    OPTIMUM_START_SF_DEPENDENT_EMS = yes
!    HtgSetP_Sch_CAV_bas = HTGSETP_SCH_CAV_bas
!    ClgSetP_Sch_CAV_bas = CLGSETP_SCH_NO_SETBACK
!    Wfile_TMY3 = USA_CO_Denver-Aurora-Buckley.AFB.724695_TMY3.epw
!    loadProfile = No
!    addendum_DV = no
!    receptacle_ctrl_occ_reduction_frac = 1
!    receptacle_ctrl_unocc_reduction_frac = 1
!    HOTW_ST_Reset = No
!    CHW_ST_Reset = No
!    SHW_Pump_Head = 29891
!    CodeName = ASHRAE90.1_STD2007
!    CZ_City_Old = Boise
!    CZ_Label = 5B
!    exterior_lights_watts_c = 0
!    Addendum_AH = No
!    LPD_Ctrl = 0
!    con_swingdoor_r = 0.352236703
!    CHW_deltaT = 6.67
!    HOTW_PumpCurve_flag = pump_ride_on_curve
Version,
    8.5;                     !- Version Identifier


!-   ===========  ALL OBJECTS IN CLASS: SIMULATIONCONTROL ===========

SimulationControl,
    Yes,                     !- Do Zone Sizing Calculation
    Yes,                     !- Do System Sizing Calculation
    Yes,                     !- Do Plant Sizing Calculation
    Yes,                     !- Run Simulation for Sizing Periods
    YES;                     !- Run Simulation for Weather File Run Periods


!-   ===========  ALL OBJECTS IN CLASS: BUILDING ===========

Building,
    Large Office,            !- Name
    0.0000,                  !- North Axis {deg}
    City,                    !- Terrain
    0.0400,                  !- Loads Convergence Tolerance Value
    0.2000,                  !- Temperature Convergence Tolerance Value {deltaC}
    FullInteriorAndExterior, !- Solar Distribution
    25,                      !- Maximum Number of Warmup Days
    6;                       !- Minimum Number of Warmup Days


!-   ===========  ALL OBJECTS IN CLASS: SHADOWCALCULATION ===========

ShadowCalculation,
    AverageOverDaysInFrequency,  !- Calculation Method
    30;                      !- Calculation Frequency


!-   ===========  ALL OBJECTS IN CLASS: SURFACECONVECTIONALGORITHM:INSIDE ===========

SurfaceConvectionAlgorithm:Inside,
    TARP;                    !- Algorithm


!-   ===========  ALL OBJECTS IN CLASS: SURFACECONVECTIONALGORITHM:OUTSIDE ===========

SurfaceConvectionAlgorithm:Outside,
    TARP;                    !- Algorithm


!-   ===========  ALL OBJECTS IN CLASS: HEATBALANCEALGORITHM ===========

HeatBalanceAlgorithm,
    ConductionTransferFunction;  !- Algorithm


!-   ===========  ALL OBJECTS IN CLASS: TIMESTEP ===========

Timestep,
    4;                       !- Number of Timesteps per Hour


!-   ===========  ALL OBJECTS IN CLASS: SITE:LOCATION ===========

! Site:Location and design-day objects created by:
! /projects/bigsim/bin/ddy2idf /projects/bigsim/weather/EnergyPlus/tmy3.new/all/USA_CO_Denver-Aurora-Buckley.AFB.724695_TMY3.ddy
!
Site:Location,
    Denver-Aurora-Buckley.AFB_CO_USA WMO=724695,  !- Name
    39.72,                   !- Latitude {deg}
    -104.75,                 !- Longitude {deg}
    -7.00,                   !- Time Zone {hr}
    1726.00;                 !- Elevation {m}


!-   ===========  ALL OBJECTS IN CLASS: SIZINGPERIOD:DESIGNDAY ===========

SizingPeriod:DesignDay,
    Denver-Aurora-Buckley.AFB_CO_USA Ann Htg 99.6% Condns DB,  !- Name
    12,                      !- Month
    21,                      !- Day of Month
    WinterDesignDay,         !- Day Type
    -17.9,                   !- Maximum Dry-Bulb Temperature {C}
    0.0,                     !- Daily Dry-Bulb Temperature Range {deltaC}
    DefaultMultipliers,      !- Dry-Bulb Temperature Range Modifier Type
    ,                        !- Dry-Bulb Temperature Range Modifier Day Schedule Name
    Wetbulb,                 !- Humidity Condition Type
    -17.9,                   !- Wetbulb or DewPoint at Maximum Dry-Bulb {C}
    ,                        !- Humidity Condition Day Schedule Name
    ,                        !- Humidity Ratio at Maximum Dry-Bulb {kgWater/kgDryAir}
    ,                        !- Enthalpy at Maximum Dry-Bulb {J/kg}
    ,                        !- Daily Wet-Bulb Temperature Range {deltaC}
    82237.,                  !- Barometric Pressure {Pa}
    2.5,                     !- Wind Speed {m/s}
    180,                     !- Wind Direction {deg}
    No,                      !- Rain Indicator
    No,                      !- Snow Indicator
    No,                      !- Daylight Saving Time Indicator
    ASHRAEClearSky,          !- Solar Model Indicator
    ,                        !- Beam Solar Day Schedule Name
    ,                        !- Diffuse Solar Day Schedule Name
    ,                        !- ASHRAE Clear Sky Optical Depth for Beam Irradiance (taub) {dimensionless}
    ,                        !- ASHRAE Clear Sky Optical Depth for Diffuse Irradiance (taud) {dimensionless}
    0.00;                    !- Sky Clearness

SizingPeriod:DesignDay,
    Denver-Aurora-Buckley.AFB_CO_USA Ann Clg .4% Condns DB=>MWB,  !- Name
    7,                       !- Month
    21,                      !- Day of Month
    SummerDesignDay,         !- Day Type
    33.9,                    !- Maximum Dry-Bulb Temperature {C}
    14.8,                    !- Daily Dry-Bulb Temperature Range {deltaC}
    DefaultMultipliers,      !- Dry-Bulb Temperature Range Modifier Type
    ,                        !- Dry-Bulb Temperature Range Modifier Day Schedule Name
    Wetbulb,                 !- Humidity Condition Type
    15,                      !- Wetbulb or DewPoint at Maximum Dry-Bulb {C}
    ,                        !- Humidity Condition Day Schedule Name
    ,                        !- Humidity Ratio at Maximum Dry-Bulb {kgWater/kgDryAir}
    ,                        !- Enthalpy at Maximum Dry-Bulb {J/kg}
    ,                        !- Daily Wet-Bulb Temperature Range {deltaC}
    82237.,                  !- Barometric Pressure {Pa}
    3.6,                     !- Wind Speed {m/s}
    30,                      !- Wind Direction {deg}
    No,                      !- Rain Indicator
    No,                      !- Snow Indicator
    No,                      !- Daylight Saving Time Indicator
    ASHRAETau,               !- Solar Model Indicator
    ,                        !- Beam Solar Day Schedule Name
    ,                        !- Diffuse Solar Day Schedule Name
    0.423,                   !- ASHRAE Clear Sky Optical Depth for Beam Irradiance (taub) {dimensionless}
    2.020;                   !- ASHRAE Clear Sky Optical Depth for Diffuse Irradiance (taud) {dimensionless}


!-   ===========  ALL OBJECTS IN CLASS: RUNPERIOD ===========

RunPeriod,
    ,                        !- Name
    1,                       !- Begin Month
    1,                       !- Begin Day of Month
    12,                      !- End Month
    31,                      !- End Day of Month
    Sunday,                  !- Day of Week for Start Day
    No,                      !- Use Weather File Holidays and Special Days
    No,                      !- Use Weather File Daylight Saving Period
    No,                      !- Apply Weekend Holiday Rule
    Yes,                     !- Use Weather File Rain Indicators
    Yes;                     !- Use Weather File Snow Indicators


!-   ===========  ALL OBJECTS IN CLASS: RUNPERIODCONTROL:SPECIALDAYS ===========

! US National Holidays
RunPeriodControl:SpecialDays,
    New Years Day,           !- Name
    January 1,               !- Start Date
    1,                       !- Duration {days}
    Holiday;                 !- Special Day Type

RunPeriodControl:SpecialDays,
    Veterans Day,            !- Name
    November 11,             !- Start Date
    1,                       !- Duration {days}
    Holiday;                 !- Special Day Type

RunPeriodControl:SpecialDays,
    Christmas,               !- Name
    December 25,             !- Start Date
    1,                       !- Duration {days}
    Holiday;                 !- Special Day Type

RunPeriodControl:SpecialDays,
    Independence Day,        !- Name
    July 4,                  !- Start Date
    1,                       !- Duration {days}
    Holiday;                 !- Special Day Type

RunPeriodControl:SpecialDays,
    MLK Day,                 !- Name
    3rd Monday in January,   !- Start Date
    1,                       !- Duration {days}
    Holiday;                 !- Special Day Type

RunPeriodControl:SpecialDays,
    Presidents Day,          !- Name
    3rd Monday in February,  !- Start Date
    1,                       !- Duration {days}
    Holiday;                 !- Special Day Type

RunPeriodControl:SpecialDays,
    Memorial Day,            !- Name
    Last Monday in May,      !- Start Date
    1,                       !- Duration {days}
    Holiday;                 !- Special Day Type

RunPeriodControl:SpecialDays,
    Labor Day,               !- Name
    1st Monday in September, !- Start Date
    1,                       !- Duration {days}
    Holiday;                 !- Special Day Type

RunPeriodControl:SpecialDays,
    Columbus Day,            !- Name
    2nd Monday in October,   !- Start Date
    1,                       !- Duration {days}
    Holiday;                 !- Special Day Type

RunPeriodControl:SpecialDays,
    Thanksgiving,            !- Name
    4th Thursday in November,!- Start Date
    1,                       !- Duration {days}
    Holiday;                 !- Special Day Type


!-   ===========  ALL OBJECTS IN CLASS: RUNPERIODCONTROL:DAYLIGHTSAVINGTIME ===========

! Daylight Saving Period in US
RunPeriodControl:DaylightSavingTime,
    2nd Sunday in March,     !- Start Date
    1st Sunday in November;  !- End Date


!-   ===========  ALL OBJECTS IN CLASS: SITE:WATERMAINSTEMPERATURE ===========

Site:WaterMainsTemperature,
    Correlation,             !- Calculation Method
    ,                        !- Temperature Schedule Name
    9.95,                    !- Annual Average Outdoor Air Temperature {C}
    23.7;                    !- Maximum Difference In Monthly Average Outdoor Air Temperatures {deltaC}


!-   ===========  ALL OBJECTS IN CLASS: SCHEDULETYPELIMITS ===========

ScheduleTypeLimits,
    Any Number;              !- Name

ScheduleTypeLimits,
    Fraction,                !- Name
    0.0,                     !- Lower Limit Value
    1.0,                     !- Upper Limit Value
    Continuous;              !- Numeric Type

ScheduleTypeLimits,
    Temperature,             !- Name
    -60,                     !- Lower Limit Value
    200,                     !- Upper Limit Value
    Continuous;              !- Numeric Type

ScheduleTypeLimits,
    On/Off,                  !- Name
    0,                       !- Lower Limit Value
    1,                       !- Upper Limit Value
    Discrete;                !- Numeric Type

ScheduleTypeLimits,
    Control Type,            !- Name
    0,                       !- Lower Limit Value
    4,                       !- Upper Limit Value
    Discrete;                !- Numeric Type

ScheduleTypeLimits,
    Humidity,                !- Name
    10,                      !- Lower Limit Value
    90,                      !- Upper Limit Value
    Continuous;              !- Numeric Type

ScheduleTypeLimits,
    Number;                  !- Name


!-   ===========  ALL OBJECTS IN CLASS: SCHEDULE:COMPACT ===========

Schedule:Compact,
    scheduleOSCBasementWallSurfaceTemp,  !- Name
    Temperature,             !- Schedule Type Limits Name
    Through:   1/31,         !- Field 1
    For:AllDays,             !- Field 2
    Until:24:00,             !- Field 3
    19.38,                   !- Field 4
    Through:   2/28,         !- Field 5
    For:AllDays,             !- Field 6
    Until:24:00,             !- Field 7
    19.25,                   !- Field 8
    Through:   3/31,         !- Field 9
    For:AllDays,             !- Field 10
    Until:24:00,             !- Field 11
    19.86,                   !- Field 12
    Through:   4/30,         !- Field 13
    For:AllDays,             !- Field 14
    Until:24:00,             !- Field 15
    20.15,                   !- Field 16
    Through:   5/31,         !- Field 17
    For:AllDays,             !- Field 18
    Until:24:00,             !- Field 19
    21.25,                   !- Field 20
    Through:   6/30,         !- Field 21
    For:AllDays,             !- Field 22
    Until:24:00,             !- Field 23
    24.62,                   !- Field 24
    Through:   7/31,         !- Field 25
    For:AllDays,             !- Field 26
    Until:24:00,             !- Field 27
    25.33,                   !- Field 28
    Through:   8/31,         !- Field 29
    For:AllDays,             !- Field 30
    Until:24:00,             !- Field 31
    25.27,                   !- Field 32
    Through:   9/30,         !- Field 33
    For:AllDays,             !- Field 34
    Until:24:00,             !- Field 35
    24.88,                   !- Field 36
    Through:  10/31,         !- Field 37
    For:AllDays,             !- Field 38
    Until:24:00,             !- Field 39
    21.26,                   !- Field 40
    Through:  11/30,         !- Field 41
    For:AllDays,             !- Field 42
    Until:24:00,             !- Field 43
    20.14,                   !- Field 44
    Through:  12/31,         !- Field 45
    For:AllDays,             !- Field 46
    Until:24:00,             !- Field 47
    19.31;                   !- Field 48

Schedule:Compact,
    scheduleOSCBasementFloorTemp,  !- Name
    Temperature,             !- Schedule Type Limits Name
    Through:   1/31,         !- Field 1
    For:AllDays,             !- Field 2
    Until:24:00,             !- Field 3
    20.85,                   !- Field 4
    Through:   2/28,         !- Field 5
    For:AllDays,             !- Field 6
    Until:24:00,             !- Field 7
    20.83,                   !- Field 8
    Through:   3/31,         !- Field 9
    For:AllDays,             !- Field 10
    Until:24:00,             !- Field 11
    20.82,                   !- Field 12
    Through:   4/30,         !- Field 13
    For:AllDays,             !- Field 14
    Until:24:00,             !- Field 15
    20.81,                   !- Field 16
    Through:   5/31,         !- Field 17
    For:AllDays,             !- Field 18
    Until:24:00,             !- Field 19
    20.82,                   !- Field 20
    Through:   6/30,         !- Field 21
    For:AllDays,             !- Field 22
    Until:24:00,             !- Field 23
    23.20,                   !- Field 24
    Through:   7/31,         !- Field 25
    For:AllDays,             !- Field 26
    Until:24:00,             !- Field 27
    23.58,                   !- Field 28
    Through:   8/31,         !- Field 29
    For:AllDays,             !- Field 30
    Until:24:00,             !- Field 31
    23.66,                   !- Field 32
    Through:   9/30,         !- Field 33
    For:AllDays,             !- Field 34
    Until:24:00,             !- Field 35
    23.69,                   !- Field 36
    Through:  10/31,         !- Field 37
    For:AllDays,             !- Field 38
    Until:24:00,             !- Field 39
    21.26,                   !- Field 40
    Through:  11/30,         !- Field 41
    For:AllDays,             !- Field 42
    Until:24:00,             !- Field 43
    20.96,                   !- Field 44
    Through:  12/31,         !- Field 45
    For:AllDays,             !- Field 46
    Until:24:00,             !- Field 47
    20.89;                   !- Field 48

Schedule:Compact,
    scheduleOSCBasementUpperWallTemp,  !- Name
    Temperature,             !- Schedule Type Limits Name
    Through:   1/31,         !- Field 1
    For:AllDays,             !- Field 2
    Until:24:00,             !- Field 3
    18.71,                   !- Field 4
    Through:   2/28,         !- Field 5
    For:AllDays,             !- Field 6
    Until:24:00,             !- Field 7
    18.49,                   !- Field 8
    Through:   3/31,         !- Field 9
    For:AllDays,             !- Field 10
    Until:24:00,             !- Field 11
    19.47,                   !- Field 12
    Through:   4/30,         !- Field 13
    For:AllDays,             !- Field 14
    Until:24:00,             !- Field 15
    19.90,                   !- Field 16
    Through:   5/31,         !- Field 17
    For:AllDays,             !- Field 18
    Until:24:00,             !- Field 19
    21.54,                   !- Field 20
    Through:   6/30,         !- Field 21
    For:AllDays,             !- Field 22
    Until:24:00,             !- Field 23
    25.29,                   !- Field 24
    Through:   7/31,         !- Field 25
    For:AllDays,             !- Field 26
    Until:24:00,             !- Field 27
    25.95,                   !- Field 28
    Through:   8/31,         !- Field 29
    For:AllDays,             !- Field 30
    Until:24:00,             !- Field 31
    25.66,                   !- Field 32
    Through:   9/30,         !- Field 33
    For:AllDays,             !- Field 34
    Until:24:00,             !- Field 35
    24.98,                   !- Field 36
    Through:  10/31,         !- Field 37
    For:AllDays,             !- Field 38
    Until:24:00,             !- Field 39
    20.68,                   !- Field 40
    Through:  11/30,         !- Field 41
    For:AllDays,             !- Field 42
    Until:24:00,             !- Field 43
    19.38,                   !- Field 44
    Through:  12/31,         !- Field 45
    For:AllDays,             !- Field 46
    Until:24:00,             !- Field 47
    18.30;                   !- Field 48

Schedule:Compact,
    scheduleOSCBasementLowerWallTemp,  !- Name
    Temperature,             !- Schedule Type Limits Name
    Through:   1/31,         !- Field 1
    For:AllDays,             !- Field 2
    Until:24:00,             !- Field 3
    20.02,                   !- Field 4
    Through:   2/28,         !- Field 5
    For:AllDays,             !- Field 6
    Until:24:00,             !- Field 7
    19.99,                   !- Field 8
    Through:   3/31,         !- Field 9
    For:AllDays,             !- Field 10
    Until:24:00,             !- Field 11
    20.24,                   !- Field 12
    Through:   4/30,         !- Field 13
    For:AllDays,             !- Field 14
    Until:24:00,             !- Field 15
    20.39,                   !- Field 16
    Through:   5/31,         !- Field 17
    For:AllDays,             !- Field 18
    Until:24:00,             !- Field 19
    20.98,                   !- Field 20
    Through:   6/30,         !- Field 21
    For:AllDays,             !- Field 22
    Until:24:00,             !- Field 23
    23.97,                   !- Field 24
    Through:   7/31,         !- Field 25
    For:AllDays,             !- Field 26
    Until:24:00,             !- Field 27
    24.73,                   !- Field 28
    Through:   8/31,         !- Field 29
    For:AllDays,             !- Field 30
    Until:24:00,             !- Field 31
    24.90,                   !- Field 32
    Through:   9/30,         !- Field 33
    For:AllDays,             !- Field 34
    Until:24:00,             !- Field 35
    24.78,                   !- Field 36
    Through:  10/31,         !- Field 37
    For:AllDays,             !- Field 38
    Until:24:00,             !- Field 39
    21.83,                   !- Field 40
    Through:  11/30,         !- Field 41
    For:AllDays,             !- Field 42
    Until:24:00,             !- Field 43
    20.87,                   !- Field 44
    Through:  12/31,         !- Field 45
    For:AllDays,             !- Field 46
    Until:24:00,             !- Field 47
    20.29;                   !- Field 48

Schedule:Compact,
    DataCenter_ExtraElecHeatC_Sch,  !- Name
    On/Off,                  !- Schedule Type Limits Name
    Through: 12/31,          !- Field 1
    For: AllDays,            !- Field 2
    Until: 24:00,            !- Field 3
    1;                       !- Field 4

Schedule:Compact,
    DataCenter_ExtraWaterHeatC_Sch,  !- Name
    On/Off,                  !- Schedule Type Limits Name
    Through: 12/31,          !- Field 1
    For: AllDays,            !- Field 2
    Until: 24:00,            !- Field 3
    1;                       !- Field 4

Schedule:Compact,
    Exterior_lighting_schedule_a,  !- Name
    fraction,                !- Schedule Type Limits Name
    Through:12/31,           !- Field 1
    For:AllDays,             !- Field 2
    Until: 06:00,            !- Field 3
    0,                       !- Field 4
    Until: 24:00,            !- Field 5
    1;                       !- Field 6

Schedule:Compact,
    Exterior_lighting_schedule_b,  !- Name
    fraction,                !- Schedule Type Limits Name
    Through:12/31,           !- Field 1
    For:AllDays,             !- Field 2
    Until: 06:00,            !- Field 3
    0.7,                     !- Field 4
    Until: 24:00,            !- Field 5
    1;                       !- Field 6

Schedule:Compact,
    Exterior_lighting_schedule_a_IECC2015,  !- Name
    fraction,                !- Schedule Type Limits Name
    Through:12/31,           !- Field 1
    For:Weekdays SummerDesignDay,  !- Field 2
    Until: 07:00,            !- Field 3
    0,                       !- Field 4
    Until: 22:00,            !- Field 5
    1,                       !- Field 6
    Until: 24:00,            !- Field 7
    0,                       !- Field 8
    For:Saturdays,           !- Field 9
    Until: 07:00,            !- Field 10
    0,                       !- Field 11
    Until: 18:00,            !- Field 12
    1,                       !- Field 13
    Until: 24:00,            !- Field 14
    0,                       !- Field 15
    For:AllOtherDays,        !- Field 16
    Until: 24:00,            !- Field 17
    0;                       !- Field 18

Schedule:Compact,
    Exterior_lighting_schedule_b_2016,  !- Name
    fraction,                !- Schedule Type Limits Name
    Through:12/31,           !- Field 1
    For:AllDays,             !- Field 2
    Until: 06:00,            !- Field 3
    0.5,                     !- Field 4
    Until: 24:00,            !- Field 5
    1;                       !- Field 6

Schedule:Compact,
    Exterior_lighting_schedule_c_2016,  !- Name
    fraction,                !- Schedule Type Limits Name
    Through:12/31,           !- Field 1
    For:AllDays,             !- Field 2
    Until: 06:00,            !- Field 3
    0.5,                     !- Field 4
    Until: 19:00,            !- Field 5
    1,                       !- Field 6
    Until: 24:00,            !- Field 7
    0.5;                     !- Field 8

Schedule:Compact,
    Hours_of_operation,      !- Name
    on/off,                  !- Schedule Type Limits Name
    Through: 12/31,          !- Field 1
    For: Weekdays SummerDesignDay,  !- Field 2
    Until: 06:00,            !- Field 3
    0.0,                     !- Field 4
    Until: 22:00,            !- Field 5
    1.0,                     !- Field 6
    Until: 24:00,            !- Field 7
    0.0,                     !- Field 8
    For: Saturday WinterDesignDay,  !- Field 9
    Until: 06:00,            !- Field 10
    0.0,                     !- Field 11
    Until: 18:00,            !- Field 12
    1.0,                     !- Field 13
    Until: 24:00,            !- Field 14
    0.0,                     !- Field 15
    For: Sunday Holidays AllOtherDays,  !- Field 16
    Until: 24:00,            !- Field 17
    0.0;                     !- Field 18

Schedule:Compact,
    ALWAYS_ON,               !- Name
    Fraction,                !- Schedule Type Limits Name
    Through: 12/31,          !- Field 1
    For: AllDays,            !- Field 2
    Until: 24:00,            !- Field 3
    1.0;                     !- Field 4

Schedule:Compact,
    Exterior_Lgt_ALWAYS_ON,  !- Name
    Fraction,                !- Schedule Type Limits Name
    Through: 12/31,          !- Field 1
    For: AllDays,            !- Field 2
    Until: 24:00,            !- Field 3
    1;                       !- Field 4

Schedule:Compact,
    Exterior_Lgt_ALWAYS_ON_default,  !- Name
    Fraction,                !- Schedule Type Limits Name
    Through: 12/31,          !- Field 1
    For: AllDays,            !- Field 2
    Until: 24:00,            !- Field 3
    1;                       !- Field 4

Schedule:Compact,
    Exterior_Lgt_189_1,      !- Name
    Fraction,                !- Schedule Type Limits Name
    Through:12/31,           !- Field 1
    For:Weekdays,            !- Field 2
    Until:  9:00,            !- Field 3
    0.5,                     !- Field 4
    Until: 24:00,            !- Field 5
    1.0,                     !- Field 6
    For:Saturday,            !- Field 7
    Until:  9:00,            !- Field 8
    0.5,                     !- Field 9
    Until: 19:00,            !- Field 10
    1.0,                     !- Field 11
    Until: 24:00,            !- Field 12
    0.5,                     !- Field 13
    FOR: Sunday Holidays AllOtherDays,  !- Field 14
    Until:  9:00,            !- Field 15
    0.5,                     !- Field 16
    Until: 18:00,            !- Field 17
    1.0,                     !- Field 18
    Until: 24:00,            !- Field 19