clock {
  timezone EST+5EDT;
  stoptime '2023-12-31 07:00:00';
  starttime '2023-01-01 07:00:00';
}

#set profiler=1
#set minimum_timestep=300
#set relax_naming_rules=1
#set warn=0

#include "${TESPDIR}/data/schedules/appliance_schedules.glm"
#include "${TESPDIR}/data/schedules/water_and_setpoint_schedule_v5.glm"
#include "${TESPDIR}/data/schedules/commercial_schedules.glm"

module climate;
module connection;
module generators;
module powerflow {
  solver_method NR;
  default_maximum_voltage_error 1e-6;
}
module residential {
  implicit_enduses NONE;
}
module tape;

object node {
  name R1_12_47_2_node_4;
  phases ABCN;
  nominal_voltage 7200.0;
  voltage_A 7200.0+0.0j;
  voltage_B -3600.00-6235.38j;
  voltage_C -3600.00+6235.38j;
}

object node {
  name R1_12_47_2_node_5;
  phases ABCN;
  nominal_voltage 7200.0;
  voltage_A 7200.0+0.0j;
  voltage_B -3600.00-6235.38j;
  voltage_C -3600.00+6235.38j;
}

object node {
  name R1_12_47_2_node_6;
  phases ABCN;
  nominal_voltage 7200.0;
  voltage_A 7200.0+0.0j;
  voltage_B -3600.00-6235.38j;
  voltage_C -3600.00+6235.38j;
}

object node {
  name R1_12_47_2_node_7;
  phases ABCN;
  nominal_voltage 7200.0;
  voltage_A 7200.0+0.0j;
  voltage_B -3600.00-6235.38j;
  voltage_C -3600.00+6235.38j;
}

object node {
  name R1_12_47_2_node_8;
  phases AN;
  nominal_voltage 7200.0;
  voltage_A 7200.0+0.0j;
}

object node {
  name R1_12_47_2_node_10;
  phases AN;
  nominal_voltage 7200.0;
  voltage_A 7200.0+0.0j;
}

object node {
  name R1_12_47_2_node_11;
  phases AN;
  nominal_voltage 7200.0;
  voltage_A 7200.0+0.0j;
}

object node {
  name R1_12_47_2_node_12;
  phases AN;
  nominal_voltage 7200.0;
  voltage_A 7200.0+0.0j;
}

object node {
  name R1_12_47_2_node_13;
  phases AN;
  nominal_voltage 7200.0;
  voltage_A 7200.0+0.0j;
}

object node {
  name R1_12_47_2_node_18;
  phases ABCN;
  nominal_voltage 7200.0;
  voltage_A 7200.0+0.0j;
  voltage_B -3600.00-6235.38j;
  voltage_C -3600.00+6235.38j;
}

object node {
  name R1_12_47_2_node_19;
  phases CN;
  nominal_voltage 7200.0;
  voltage_C -3600.00+6235.38j;
}

object node {
  name R1_12_47_2_node_21;
  phases ABCN;
  nominal_voltage 7200.0;
  voltage_A 7200.0+0.0j;
  voltage_B -3600.00-6235.38j;
  voltage_C -3600.00+6235.38j;
}

object node {
  name R1_12_47_2_node_22;
  phases BN;
  nominal_voltage 7200.0;
  voltage_B -3600.00-6235.38j;
}

object node {
  name R1_12_47_2_node_24;
  phases ABCN;
  nominal_voltage 7200.0;
  voltage_A 7200.0+0.0j;
  voltage_B -3600.00-6235.38j;
  voltage_C -3600.00+6235.38j;
}

object node {
  name R1_12_47_2_node_25;
  phases AN;
  nominal_voltage 7200.0;
  voltage_A 7200.0+0.0j;
}

object node {
  name R1_12_47_2_node_28;
  phases ABCN;
  nominal_voltage 7200.0;
  voltage_A 7200.0+0.0j;
  voltage_B -3600.00-6235.38j;
  voltage_C -3600.00+6235.38j;
}

object node {
  name R1_12_47_2_node_29;
  phases BCN;
  nominal_voltage 7200.0;
  voltage_B -3600.00-6235.38j;
  voltage_C -3600.00+6235.38j;
}

object node {
  name R1_12_47_2_node_33;
  phases BCN;
  nominal_voltage 7200.0;
  voltage_B -3600.00-6235.38j;
  voltage_C -3600.00+6235.38j;
}

object node {
  name R1_12_47_2_node_34;
  phases BN;
  nominal_voltage 7200.0;
  voltage_B -3600.00-6235.38j;
}

object node {
  name R1_12_47_2_node_35;
  phases CN;
  nominal_voltage 7200.0;
  voltage_C -3600.00+6235.38j;
}

object node {
  name R1_12_47_2_node_36;
  phases CN;
  nominal_voltage 7200.0;
  voltage_C -3600.00+6235.38j;
}

object node {
  name R1_12_47_2_node_37;
  phases CN;
  nominal_voltage 7200.0;
  voltage_C -3600.00+6235.38j;
}

object node {
  name R1_12_47_2_node_39;
  phases CN;
  nominal_voltage 7200.0;
  voltage_C -3600.00+6235.38j;
}

object node {
  name R1_12_47_2_node_40;
  phases CN;
  nominal_voltage 7200.0;
  voltage_C -3600.00+6235.38j;
}

object node {
  name R1_12_47_2_node_41;
  phases CN;
  nominal_voltage 7200.0;
  voltage_C -3600.00+6235.38j;
}

object node {
  name R1_12_47_2_node_43;
  phases CN;
  nominal_voltage 7200.0;
  voltage_C -3600.00+6235.38j;
}

object node {
  name R1_12_47_2_node_42;
  phases CN;
  nominal_voltage 7200.0;
  voltage_C -3600.00+6235.38j;
}

object node {
  name R1_12_47_2_node_44;
  phases CN;
  nominal_voltage 7200.0;
  voltage_C -3600.00+6235.38j;
}

object node {
  name R1_12_47_2_node_45;
  phases CN;
  nominal_voltage 7200.0;
  voltage_C -3600.00+6235.38j;
}

object node {
  name R1_12_47_2_node_46;
  phases CN;
  nominal_voltage 7200.0;
  voltage_C -3600.00+6235.38j;
}

object node {
  name R1_12_47_2_node_49;
  phases CN;
  nominal_voltage 7200.0;
  voltage_C -3600.00+6235.38j;
}

object node {
  name R1_12_47_2_node_50;
  phases CN;
  nominal_voltage 7200.0;
  voltage_C -3600.00+6235.38j;
}

object node {
  name R1_12_47_2_node_51;
  phases CN;
  nominal_voltage 7200.0;
  voltage_C -3600.00+6235.38j;
}

object node {
  name R1_12_47_2_node_52;
  phases CN;
  nominal_voltage 7200.0;
  voltage_C -3600.00+6235.38j;
}

object node {
  name R1_12_47_2_node_53;
  phases CN;
  nominal_voltage 7200.0;
  voltage_C -3600.00+6235.38j;
}

object node {
  name R1_12_47_2_node_57;
  phases ABCN;
  nominal_voltage 7200.0;
  voltage_A 7200.0+0.0j;
  voltage_B -3600.00-6235.38j;
  voltage_C -3600.00+6235.38j;
}

object node {
  name R1_12_47_2_node_58;
  phases BN;
  nominal_voltage 7200.0;
  voltage_B -3600.00-6235.38j;
}

object node {
  name R1_12_47_2_node_61;
  phases BN;
  nominal_voltage 7200.0;
  voltage_B -3600.00-6235.38j;
}

object node {
  name R1_12_47_2_node_62;
  phases BN;
  nominal_voltage 7200.0;
  voltage_B -3600.00-6235.38j;
}

object node {
  name R1_12_47_2_node_67;
  phases BN;
  nominal_voltage 7200.0;
  voltage_B -3600.00-6235.38j;
}

object node {
  name R1_12_47_2_node_68;
  phases BN;
  nominal_voltage 7200.0;
  voltage_B -3600.00-6235.38j;
}

object node {
  name R1_12_47_2_node_73;
  phases BN;
  nominal_voltage 7200.0;
  voltage_B -3600.00-6235.38j;
}

object node {
  name R1_12_47_2_node_74;
  phases BN;
  nominal_voltage 7200.0;
  voltage_B -3600.00-6235.38j;
}

object node {
  name R1_12_47_2_node_75;
  phases BN;
  nominal_voltage 7200.0;
  voltage_B -3600.00-6235.38j;
}

object node {
  name R1_12_47_2_node_76;
  phases BN;
  nominal_voltage 7200.0;
  voltage_B -3600.00-6235.38j;
}

object node {
  name R1_12_47_2_node_78;
  phases BN;
  nominal_voltage 7200.0;
  voltage_B -3600.00-6235.38j;
}

object node {
  name R1_12_47_2_node_79;
  phases BN;
  nominal_voltage 7200.0;
  voltage_B -3600.00-6235.38j;
}

object node {
  name R1_12_47_2_node_81;
  phases BN;
  nominal_voltage 7200.0;
  voltage_B -3600.00-6235.38j;
}

object node {
  name R1_12_47_2_node_82;
  phases BN;
  nominal_voltage 7200.0;
  voltage_B -3600.00-6235.38j;
}

object node {
  name R1_12_47_2_node_83;
  phases BN;
  nominal_voltage 7200.0;
  voltage_B -3600.00-6235.38j;
}

object node {
  name R1_12_47_2_node_84;
  phases BN;
  nominal_voltage 7200.0;
  voltage_B -3600.00-6235.38j;
}

object node {
  name R1_12_47_2_node_85;
  phases BN;
  nominal_voltage 7200.0;
  voltage_B -3600.00-6235.38j;
}

object node {
  name R1_12_47_2_node_86;
  phases BN;
  nominal_voltage 7200.0;
  voltage_B -3600.00-6235.38j;
}

object node {
  name R1_12_47_2_node_89;
  phases BN;
  nominal_voltage 7200.0;
  voltage_B -3600.00-6235.38j;
}

object node {
  name R1_12_47_2_node_90;
  phases BN;
  nominal_voltage 7200.0;
  voltage_B -3600.00-6235.38j;
}

object node {
  name R1_12_47_2_node_93;
  phases BN;
  nominal_voltage 7200.0;
  voltage_B -3600.00-6235.38j;
}

object node {
  name R1_12_47_2_node_95;
  phases BN;
  nominal_voltage 7200.0;
  voltage_B -3600.00-6235.38j;
}

object node {
  name R1_12_47_2_node_96;
  phases BN;
  nominal_voltage 7200.0;
  voltage_B -3600.00-6235.38j;
}

object node {
  name R1_12_47_2_node_97;
  phases BN;
  nominal_voltage 7200.0;
  voltage_B -3600.00-6235.38j;
}

object node {
  name R1_12_47_2_node_336;
  phases BN;
  nominal_voltage 7200.0;
  voltage_B -3600.00-6235.38j;
}

object node {
  name R1_12_47_2_node_100;
  phases BN;
  nominal_voltage 7200.0;
  voltage_B -3600.00-6235.38j;
}

object node {
  name R1_12_47_2_node_102;
  phases BN;
  nominal_voltage 7200.0;
  voltage_B -3600.00-6235.38j;
}

object node {
  name R1_12_47_2_node_101;
  phases BN;
  nominal_voltage 7200.0;
  voltage_B -3600.00-6235.38j;
}

object node {
  name R1_12_47_2_node_103;
  phases BN;
  nominal_voltage 7200.0;
  voltage_B -3600.00-6235.38j;
}

object node {
  name R1_12_47_2_node_99;
  phases BN;
  nominal_voltage 7200.0;
  voltage_B -3600.00-6235.38j;
}

object node {
  name R1_12_47_2_node_105;
  phases BN;
  nominal_voltage 7200.0;
  voltage_B -3600.00-6235.38j;
}

object node {
  name R1_12_47_2_node_337;
  phases BN;
  nominal_voltage 7200.0;
  voltage_B -3600.00-6235.38j;
}

object node {
  name R1_12_47_2_node_107;
  phases BN;
  nominal_voltage 7200.0;
  voltage_B -3600.00-6235.38j;
}

object node {
  name R1_12_47_2_node_108;
  phases BN;
  nominal_voltage 7200.0;
  voltage_B -3600.00-6235.38j;
}

object node {
  name R1_12_47_2_node_109;
  phases BN;
  nominal_voltage 7200.0;
  voltage_B -3600.00-6235.38j;
}

object node {
  name R1_12_47_2_node_110;
  phases BN;
  nominal_voltage 7200.0;
  voltage_B -3600.00-6235.38j;
}

object node {
  name R1_12_47_2_node_111;
  phases ABCN;
  nominal_voltage 7200.0;
  voltage_A 7200.0+0.0j;
  voltage_B -3600.00-6235.38j;
  voltage_C -3600.00+6235.38j;
}

object node {
  name R1_12_47_2_node_112;
  phases AN;
  nominal_voltage 7200.0;
  voltage_A 7200.0+0.0j;
}

object node {
  name R1_12_47_2_node_113;
  phases AN;
  nominal_voltage 7200.0;
  voltage_A 7200.0+0.0j;
}

object node {
  name R1_12_47_2_node_114;
  phases ABCN;
  nominal_voltage 7200.0;
  voltage_A 7200.0+0.0j;
  voltage_B -3600.00-6235.38j;
  voltage_C -3600.00+6235.38j;
}

object node {
  name R1_12_47_2_node_115;
  phases AN;
  nominal_voltage 7200.0;
  voltage_A 7200.0+0.0j;
}

object node {
  name R1_12_47_2_node_116;
  phases ABCN;
  nominal_voltage 7200.0;
  voltage_A 7200.0+0.0j;
  voltage_B -3600.00-6235.38j;
  voltage_C -3600.00+6235.38j;
}

object node {
  name R1_12_47_2_node_323;
  phases BN;
  nominal_voltage 7200.0;
  voltage_B -3600.00-6235.38j;
}

object node {
  name R1_12_47_2_node_118;
  phases ABCN;
  nominal_voltage 7200.0;
  voltage_A 7200.0+0.0j;
  voltage_B -3600.00-6235.38j;
  voltage_C -3600.00+6235.38j;
}

object node {
  name R1_12_47_2_node_119;
  phases ABN;
  nominal_voltage 7200.0;
  voltage_A 7200.0+0.0j;
  voltage_B -3600.00-6235.38j;
}

object node {
  name R1_12_47_2_node_122;
  phases BN;
  nominal_voltage 7200.0;
  voltage_B -3600.00-6235.38j;
}

object node {
  name R1_12_47_2_node_123;
  phases BN;
  nominal_voltage 7200.0;
  voltage_B -3600.00-6235.38j;
}

object node {
  name R1_12_47_2_node_129;
  phases AN;
  nominal_voltage 7200.0;
  voltage_A 7200.0+0.0j;
}

object node {
  name R1_12_47_2_node_128;
  phases AN;
  nominal_voltage 7200.0;
  voltage_A 7200.0+0.0j;
}

object node {
  name R1_12_47_2_node_133;
  phases AN;
  nominal_voltage 7200.0;
  voltage_A 7200.0+0.0j;
}

object node {
  name R1_12_47_2_node_135;
  phases AN;
  nominal_voltage 7200.0;
  voltage_A 7200.0+0.0j;
}

object node {
  name R1_12_47_2_node_139;
  phases AN;
  nominal_voltage 7200.0;
  voltage_A 7200.0+0.0j;
}

object node {
  name R1_12_47_2_node_140;
  phases AN;
  nominal_voltage 7200.0;
  voltage_A 7200.0+0.0j;
}

object node {
  name R1_12_47_2_node_126;
  phases AN;
  nominal_voltage 7200.0;
  voltage_A 7200.0+0.0j;
}

object node {
  name R1_12_47_2_node_141;
  phases AN;
  nominal_voltage 7200.0;
  voltage_A 7200.0+0.0j;
}

object node {
  name R1_12_47_2_node_142;
  phases AN;
  nominal_voltage 7200.0;
  voltage_A 7200.0+0.0j;
}

object node {
  name R1_12_47_2_node_144;
  phases AN;
  nominal_voltage 7200.0;
  voltage_A 7200.0+0.0j;
}

object node {
  name R1_12_47_2_node_145;
  phases AN;
  nominal_voltage 7200.0;
  voltage_A 7200.0+0.0j;
}

object node {
  name R1_12_47_2_node_148;
  phases AN;
  nominal_voltage 7200.0;
  voltage_A 7200.0+0.0j;
}

object node {
  name R1_12_47_2_node_308;
  phases AN;
  nominal_voltage 7200.0;
  voltage_A 7200.0+0.0j;
}

object node {
  name R1_12_47_2_node_150;
  phases AN;
  nominal_voltage 7200.0;
  voltage_A 7200.0+0.0j;
}

object node {
  name R1_12_47_2_node_164;
  phases CN;
  nominal_voltage 7200.0;
  voltage_C -3600.00+6235.38j;
}

object node {
  name R1_12_47_2_node_165;
  phases CN;
  nominal_voltage 7200.0;
  voltage_C -3600.00+6235.38j;
}

object node {
  name R1_12_47_2_node_166;
  phases CN;
  nominal_voltage 7200.0;
  voltage_C -3600.00+6235.38j;
}

object node {
  name R1_12_47_2_node_168;
  phases CN;
  nominal_voltage 7200.0;
  voltage_C -3600.00+6235.38j;
}

object node {
  name R1_12_47_2_node_184;
  phases BCN;
  nominal_voltage 7200.0;
  voltage_B -3600.00-6235.38j;
  voltage_C -3600.00+6235.38j;
}

object node {
  name R1_12_47_2_node_334;
  phases BN;
  nominal_voltage 7200.0;
  voltage_B -3600.00-6235.38j;
}

object node {
  name R1_12_47_2_node_185;
  phases BCN;
  nominal_voltage 7200.0;
  voltage_B -3600.00-6235.38j;
  voltage_C -3600.00+6235.38j;
}

object node {
  name R1_12_47_2_node_186;
  phases CN;
  nominal_voltage 7200.0;
  voltage_C -3600.00+6235.38j;
}

object node {
  name R1_12_47_2_node_187;
  phases BCN;
  nominal_voltage 7200.0;
  voltage_B -3600.00-6235.38j;
  voltage_C -3600.00+6235.38j;
}

object node {
  name R1_12_47_2_node_188;
  phases CN;
  nominal_voltage 7200.0;
  voltage_C -3600.00+6235.38j;
}

object node {
  name R1_12_47_2_node_189;
  phases BCN;
  nominal_voltage 7200.0;
  voltage_B -3600.00-6235.38j;
  voltage_C -3600.00+6235.38j;
}

object node {
  name R1_12_47_2_node_190;
  phases CN;
  nominal_voltage 7200.0;
  voltage_C -3600.00+6235.38j;
}

object node {
  name R1_12_47_2_node_208;
  phases BCN;
  nominal_voltage 7200.0;
  voltage_B -3600.00-6235.38j;
  voltage_C -3600.00+6235.38j;
}

object node {
  name R1_12_47_2_node_209;
  phases BN;
  nominal_voltage 7200.0;
  voltage_B -3600.00-6235.38j;
}

object node {
  name R1_12_47_2_node_210;
  phases CN;
  nominal_voltage 7200.0;
  voltage_C -3600.00+6235.38j;
}

object node {
  name R1_12_47_2_node_211;
  phases CN;
  nominal_voltage 7200.0;
  voltage_C -3600.00+6235.38j;
}

object node {
  name R1_12_47_2_node_215;
  phases BCN;
  nominal_voltage 7200.0;
  voltage_B -3600.00-6235.38j;
  voltage_C -3600.00+6235.38j;
}

object node {
  name R1_12_47_2_node_216;
  phases BCN;
  nominal_voltage 7200.0;
  voltage_B -3600.00-6235.38j;
  voltage_C -3600.00+6235.38j;
}

object node {
  name R1_12_47_2_node_217;
  phases BCN;
  nominal_voltage 7200.0;
  voltage_B -3600.00-6235.38j;
  voltage_C -3600.00+6235.38j;
}

object node {
  name R1_12_47_2_node_335;
  phases CN;
  nominal_voltage 7200.0;
  voltage_C -3600.00+6235.38j;
}

object node {
  name R1_12_47_2_node_320;
  phases BCN;
  nominal_voltage 7200.0;
  voltage_B -3600.00-6235.38j;
  voltage_C -3600.00+6235.38j;
}

object node {
  name R1_12_47_2_node_222;
  phases BN;
  nominal_voltage 7200.0;
  voltage_B -3600.00-6235.38j;
}

object node {
  name R1_12_47_2_node_223;
  phases BN;
  nominal_voltage 7200.0;
  voltage_B -3600.00-6235.38j;
}

object node {
  name R1_12_47_2_node_232;
  phases BN;
  nominal_voltage 7200.0;
  voltage_B -3600.00-6235.38j;
}

object node {
  name R1_12_47_2_node_233;
  phases BN;
  nominal_voltage 7200.0;
  voltage_B -3600.00-6235.38j;
}

object node {
  name R1_12_47_2_node_235;
  phases BN;
  nominal_voltage 7200.0;
  voltage_B -3600.00-6235.38j;
}

object node {
  name R1_12_47_2_node_236;
  phases BN;
  nominal_voltage 7200.0;
  voltage_B -3600.00-6235.38j;
}

object node {
  name R1_12_47_2_node_238;
  phases CN;
  nominal_voltage 7200.0;
  voltage_C -3600.00+6235.38j;
}

object node {
  name R1_12_47_2_node_239;
  phases CN;
  nominal_voltage 7200.0;
  voltage_C -3600.00+6235.38j;
}

object node {
  name R1_12_47_2_node_240;
  phases CN;
  nominal_voltage 7200.0;
  voltage_C -3600.00+6235.38j;
}

object node {
  name R1_12_47_2_node_242;
  phases CN;
  nominal_voltage 7200.0;
  voltage_C -3600.00+6235.38j;
}

object node {
  name R1_12_47_2_node_243;
  phases CN;
  nominal_voltage 7200.0;
  voltage_C -3600.00+6235.38j;
}

object node {
  name R1_12_47_2_node_251;
  phases CN;
  nominal_voltage 7200.0;
  voltage_C -3600.00+6235.38j;
}

object node {
  name R1_12_47_2_node_252;
  phases CN;
  nominal_voltage 7200.0;
  voltage_C -3600.00+6235.38j;
}

object node {
  name R1_12_47_2_node_254;
  phases BN;
  nominal_voltage 7200.0;
  voltage_B -3600.00-6235.38j;
}

object node {
  name R1_12_47_2_node_255;
  phases BN;
  nominal_voltage 7200.0;
  voltage_B -3600.00-6235.38j;
}

object node {
  name R1_12_47_2_node_259;
  phases BN;
  nominal_voltage 7200.0;
  voltage_B -3600.00-6235.38j;
}

object node {
  name R1_12_47_2_node_310;
  phases BN;
  nominal_voltage 7200.0;
  voltage_B -3600.00-6235.38j;
}

object node {
  name R1_12_47_2_node_265;
  phases BCN;
  nominal_voltage 7200.0;
  voltage_B -3600.00-6235.38j;
  voltage_C -3600.00+6235.38j;
}

object node {
  name R1_12_47_2_node_266;
  phases CN;
  nominal_voltage 7200.0;
  voltage_C -3600.00+6235.38j;
}

object node {
  name R1_12_47_2_node_267;
  phases BCN;
  nominal_voltage 7200.0;
  voltage_B -3600.00-6235.38j;
  voltage_C -3600.00+6235.38j;
}

object node {
  name R1_12_47_2_node_268;
  phases CN;
  nominal_voltage 7200.0;
  voltage_C -3600.00+6235.38j;
}

object node {
  name R1_12_47_2_node_272;
  phases BN;
  nominal_voltage 7200.0;
  voltage_B -3600.00-6235.38j;
}

object node {
  name R1_12_47_2_node_273;
  phases BN;
  nominal_voltage 7200.0;
  voltage_B -3600.00-6235.38j;
}

object node {
  name R1_12_47_2_node_275;
  phases BN;
  nominal_voltage 7200.0;
  voltage_B -3600.00-6235.38j;
}

object node {
  name R1_12_47_2_node_276;
  phases BN;
  nominal_voltage 7200.0;
  voltage_B -3600.00-6235.38j;
}

object node {
  name R1_12_47_2_node_117;
  phases BN;
  nominal_voltage 7200.0;
  voltage_B -3600.00-6235.38j;
}

object node {
  name R1_12_47_2_node_307;
  phases BN;
  nominal_voltage 7200.0;
  voltage_B -3600.00-6235.38j;
}

object node {
  name R1_12_47_2_node_315;
  phases BN;
  nominal_voltage 7200.0;
  voltage_B -3600.00-6235.38j;
}

object node {
  name R1_12_47_2_node_316;
  phases BN;
  nominal_voltage 7200.0;
  voltage_B -3600.00-6235.38j;
}

object node {
  name R1_12_47_2_node_106;
  phases BN;
  nominal_voltage 7200.0;
  voltage_B -3600.00-6235.38j;
}

object node {
  name R1_12_47_2_node_318;
  phases BN;
  nominal_voltage 7200.0;
  voltage_B -3600.00-6235.38j;
}

object node {
  name R1_12_47_2_node_321;
  phases BN;
  nominal_voltage 7200.0;
  voltage_B -3600.00-6235.38j;
}

object node {
  name R1_12_47_2_node_329;
  phases AN;
  nominal_voltage 7200.0;
  voltage_A 7200.0+0.0j;
}

object node {
  name R1_12_47_2_node_331;
  phases AN;
  nominal_voltage 7200.0;
  voltage_A 7200.0+0.0j;
}

object node {
  name R1_12_47_2_node_294;
  parent R1_12_47_2_meter_14;
  phases ABCN;
  nominal_voltage 7200.0;
  voltage_A 7200.0+0.0j;
  voltage_B -3600.00-6235.38j;
  voltage_C -3600.00+6235.38j;
}

object node {
  name R1_12_47_2_node_1;
  phases ABCN;
  nominal_voltage 7200.0;
  voltage_A 7200.0+0.0j;
  voltage_B -3600.00-6235.38j;
  voltage_C -3600.00+6235.38j;
}

object node {
  name R1_12_47_2_node_54;
  phases ABCN;
  nominal_voltage 7200.0;
  voltage_A 7200.0+0.0j;
  voltage_B -3600.00-6235.38j;
  voltage_C -3600.00+6235.38j;
}

object node {
  name R1_12_47_2_node_55;
  phases ABCN;
  nominal_voltage 7200.0;
  voltage_A 7200.0+0.0j;
  voltage_B -3600.00-6235.38j;
  voltage_C -3600.00+6235.38j;
}

object node {
  name R1_12_47_2_node_56;
  phases ABCN;
  nominal_voltage 7200.0;
  voltage_A 7200.0+0.0j;
  voltage_B -3600.00-6235.38j;
  voltage_C -3600.00+6235.38j;
}

object node {
  name R1_12_47_2_node_293;
  phases ABCN;
  nominal_voltage 7200.0;
  voltage_A 7200.0+0.0j;
  voltage_B -3600.00-6235.38j;
  voltage_C -3600.00+6235.38j;
}

object node {
  name R1_12_47_2_node_333;
  phases ABCN;
  nominal_voltage 7200.0;
  voltage_A 7200.0+0.0j;
  voltage_B -3600.00-6235.38j;
  voltage_C -3600.00+6235.38j;
}

object node {
  name R1_12_47_2_node_2;
  phases ABCN;
  nominal_voltage 7200.0;
  voltage_A 7200.0+0.0j;
  voltage_B -3600.00-6235.38j;
  voltage_C -3600.00+6235.38j;
}

object node {
  name R1_12_47_2_node_3;
  phases ABCN;
  nominal_voltage 7200.0;
  voltage_A 7200.0+0.0j;
  voltage_B -3600.00-6235.38j;
  voltage_C -3600.00+6235.38j;
}

object node {
  name R1_12_47_2_node_9;
  phases AN;
  nominal_voltage 7200.0;
  voltage_A 7200.0+0.0j;
}

object node {
  name R1_12_47_2_node_14;
  phases AN;
  nominal_voltage 7200.0;
  voltage_A 7200.0+0.0j;
}

object node {
  name R1_12_47_2_node_15;
  phases AN;
  nominal_voltage 7200.0;
  voltage_A 7200.0+0.0j;
}

object node {
  name R1_12_47_2_node_16;
  phases AN;
  nominal_voltage 7200.0;
  voltage_A 7200.0+0.0j;
}

object node {
  name R1_12_47_2_node_17;
  phases ABCN;
  nominal_voltage 7200.0;
  voltage_A 7200.0+0.0j;
  voltage_B -3600.00-6235.38j;
  voltage_C -3600.00+6235.38j;
}

object node {
  name R1_12_47_2_node_20;
  phases CN;
  nominal_voltage 7200.0;
  voltage_C -3600.00+6235.38j;
}

object node {
  name R1_12_47_2_node_23;
  phases BN;
  nominal_voltage 7200.0;
  voltage_B -3600.00-6235.38j;
}

object node {
  name R1_12_47_2_node_26;
  phases AN;
  nominal_voltage 7200.0;
  voltage_A 7200.0+0.0j;
}

object node {
  name R1_12_47_2_node_27;
  phases AN;
  nominal_voltage 7200.0;
  voltage_A 7200.0+0.0j;
}

object node {
  name R1_12_47_2_node_30;
  phases BCN;
  nominal_voltage 7200.0;
  voltage_B -3600.00-6235.38j;
  voltage_C -3600.00+6235.38j;
}

object node {
  name R1_12_47_2_node_31;
  phases CN;
  nominal_voltage 7200.0;
  voltage_C -3600.00+6235.38j;
}

object node {
  name R1_12_47_2_node_32;
  phases BCN;
  nominal_voltage 7200.0;
  voltage_B -3600.00-6235.38j;
  voltage_C -3600.00+6235.38j;
}

object node {
  name R1_12_47_2_node_38;
  phases CN;
  nominal_voltage 7200.0;
  voltage_C -3600.00+6235.38j;
}

object node {
  name R1_12_47_2_node_47;
  phases CN;
  nominal_voltage 7200.0;
  voltage_C -3600.00+6235.38j;
}

object node {
  name R1_12_47_2_node_48;
  phases CN;
  nominal_voltage 7200.0;
  voltage_C -3600.00+6235.38j;
}

object node {
  name R1_12_47_2_node_59;
  phases BN;
  nominal_voltage 7200.0;
  voltage_B -3600.00-6235.38j;
}

object node {
  name R1_12_47_2_node_60;
  phases BN;
  nominal_voltage 7200.0;
  voltage_B -3600.00-6235.38j;
}

object node {
  name R1_12_47_2_node_69;
  phases BN;
  nominal_voltage 7200.0;
  voltage_B -3600.00-6235.38j;
}

object node {
  name R1_12_47_2_node_70;
  phases BN;
  nominal_voltage 7200.0;
  voltage_B -3600.00-6235.38j;
}

object node {
  name R1_12_47_2_node_71;
  phases BN;
  nominal_voltage 7200.0;
  voltage_B -3600.00-6235.38j;
}

object node {
  name R1_12_47_2_node_72;
  phases BN;
  nominal_voltage 7200.0;
  voltage_B -3600.00-6235.38j;
}

object node {
  name R1_12_47_2_node_77;
  phases BN;
  nominal_voltage 7200.0;
  voltage_B -3600.00-6235.38j;
}

object node {
  name R1_12_47_2_node_80;
  phases BN;
  nominal_voltage 7200.0;
  voltage_B -3600.00-6235.38j;
}

object node {
  name R1_12_47_2_node_88;
  phases BN;
  nominal_voltage 7200.0;
  voltage_B -3600.00-6235.38j;
}

object node {
  name R1_12_47_2_node_94;
  phases BN;
  nominal_voltage 7200.0;
  voltage_B -3600.00-6235.38j;
}

object node {
  name R1_12_47_2_node_98;
  phases BN;
  nominal_voltage 7200.0;
  voltage_B -3600.00-6235.38j;
}

object node {
  name R1_12_47_2_node_104;
  phases BN;
  nominal_voltage 7200.0;
  voltage_B -3600.00-6235.38j;
}

object node {
  name R1_12_47_2_node_120;
  phases ABN;
  nominal_voltage 7200.0;
  voltage_A 7200.0+0.0j;
  voltage_B -3600.00-6235.38j;
}

object node {
  name R1_12_47_2_node_121;
  phases ABN;
  nominal_voltage 7200.0;
  voltage_A 7200.0+0.0j;
  voltage_B -3600.00-6235.38j;
}

object node {
  name R1_12_47_2_node_124;
  phases ABN;
  nominal_voltage 7200.0;
  voltage_A 7200.0+0.0j;
  voltage_B -3600.00-6235.38j;
}

object node {
  name R1_12_47_2_node_125;
  phases ABN;
  nominal_voltage 7200.0;
  voltage_A 7200.0+0.0j;
  voltage_B -3600.00-6235.38j;
}

object node {
  name R1_12_47_2_node_127;
  phases AN;
  nominal_voltage 7200.0;
  voltage_A 7200.0+0.0j;
}

object node {
  name R1_12_47_2_node_131;
  phases AN;
  nominal_voltage 7200.0;
  voltage_A 7200.0+0.0j;
}

object node {
  name R1_12_47_2_node_327;
  phases AN;
  nominal_voltage 7200.0;
  voltage_A 7200.0+0.0j;
}

object node {
  name R1_12_47_2_node_330;
  phases AN;
  nominal_voltage 7200.0;
  voltage_A 7200.0+0.0j;
}

object node {
  name R1_12_47_2_node_137;
  phases AN;
  nominal_voltage 7200.0;
  voltage_A 7200.0+0.0j;
}

object node {
  name R1_12_47_2_node_138;
  phases AN;
  nominal_voltage 7200.0;
  voltage_A 7200.0+0.0j;
}

object node {
  name R1_12_47_2_node_143;
  phases AN;
  nominal_voltage 7200.0;
  voltage_A 7200.0+0.0j;
}

object node {
  name R1_12_47_2_node_146;
  phases AN;
  nominal_voltage 7200.0;
  voltage_A 7200.0+0.0j;
}

object node {
  name R1_12_47_2_node_167;
  phases CN;
  nominal_voltage 7200.0;
  voltage_C -3600.00+6235.38j;
}

object node {
  name R1_12_47_2_node_183;
  phases ABCN;
  nominal_voltage 7200.0;
  voltage_A 7200.0+0.0j;
  voltage_B -3600.00-6235.38j;
  voltage_C -3600.00+6235.38j;
}

object node {
  name R1_12_47_2_node_220;
  phases BCN;
  nominal_voltage 7200.0;
  voltage_B -3600.00-6235.38j;
  voltage_C -3600.00+6235.38j;
}

object node {
  name R1_12_47_2_node_224;
  phases BN;
  nominal_voltage 7200.0;
  voltage_B -3600.00-6235.38j;
}

object node {
  name R1_12_47_2_node_221;
  phases BN;
  nominal_voltage 7200.0;
  voltage_B -3600.00-6235.38j;
}

object node {
  name R1_12_47_2_node_227;
  phases BN;
  nominal_voltage 7200.0;
  voltage_B -3600.00-6235.38j;
}

object node {
  name R1_12_47_2_node_231;
  phases BCN;
  nominal_voltage 7200.0;
  voltage_B -3600.00-6235.38j;
  voltage_C -3600.00+6235.38j;
}

object node {
  name R1_12_47_2_node_234;
  phases BCN;
  nominal_voltage 7200.0;
  voltage_B -3600.00-6235.38j;
  voltage_C -3600.00+6235.38j;
}

object node {
  name R1_12_47_2_node_237;
  phases BCN;
  nominal_voltage 7200.0;
  voltage_B -3600.00-6235.38j;
  voltage_C -3600.00+6235.38j;
}

object node {
  name R1_12_47_2_node_241;
  phases BCN;
  nominal_voltage 7200.0;
  voltage_B -3600.00-6235.38j;
  voltage_C -3600.00+6235.38j;
}

object node {
  name R1_12_47_2_node_250;
  phases BCN;
  nominal_voltage 7200.0;
  voltage_B -3600.00-6235.38j;
  voltage_C -3600.00+6235.38j;
}

object node {
  name R1_12_47_2_node_253;
  phases BCN;
  nominal_voltage 7200.0;
  voltage_B -3600.00-6235.38j;
  voltage_C -3600.00+6235.38j;
}

object node {
  name R1_12_47_2_node_258;
  phases BCN;
  nominal_voltage 7200.0;
  voltage_B -3600.00-6235.38j;
  voltage_C -3600.00+6235.38j;
}

object node {
  name R1_12_47_2_node_263;
  phases BCN;
  nominal_voltage 7200.0;
  voltage_B -3600.00-6235.38j;
  voltage_C -3600.00+6235.38j;
}

object node {
  name R1_12_47_2_node_264;
  phases BCN;
  nominal_voltage 7200.0;
  voltage_B -3600.00-6235.38j;
  voltage_C -3600.00+6235.38j;
}

object node {
  name R1_12_47_2_node_271;
  phases BN;
  nominal_voltage 7200.0;
  voltage_B -3600.00-6235.38j;
}

object node {
  name R1_12_47_2_node_274;
  phases BN;
  nominal_voltage 7200.0;
  voltage_B -3600.00-6235.38j;
}

object node {
  name R1_12_47_2_node_291;
  phases BN;
  nominal_voltage 7200.0;
  voltage_B -3600.00-6235.38j;
}

object node {
  name R1_12_47_2_node_313;
  phases BN;
  nominal_voltage 7200.0;
  voltage_B -3600.00-6235.38j;
}

object node {
  name R1_12_47_2_node_314;
  phases BN;
  nominal_voltage 7200.0;
  voltage_B -3600.00-6235.38j;
}

object node {
  name R1_12_47_2_node_218;
  phases BCN;
  nominal_voltage 7200.0;
  voltage_B -3600.00-6235.38j;
  voltage_C -3600.00+6235.38j;
}

object node {
  name R1_12_47_2_node_325;
  phases AN;
  nominal_voltage 7200.0;
  voltage_A 7200.0+0.0j;
}

object node {
  name R1_12_47_2_node_326;
  phases AN;
  nominal_voltage 7200.0;
  voltage_A 7200.0+0.0j;
}

object node {
  name R1_12_47_2_node_328;
  phases AN;
  nominal_voltage 7200.0;
  voltage_A 7200.0+0.0j;
}

object node {
  name R1_12_47_2_node_63;
  phases BN;
  nominal_voltage 7200.0;
  voltage_B -3600.00-6235.38j;
}

object node {
  name R1_12_47_2_node_64;
  phases BN;
  nominal_voltage 7200.0;
  voltage_B -3600.00-6235.38j;
}

object node {
  name R1_12_47_2_node_296;
  phases BN;
  nominal_voltage 7200.0;
  voltage_B -3600.00-6235.38j;
}

object node {
  name R1_12_47_2_node_66;
  phases BN;
  nominal_voltage 7200.0;
  voltage_B -3600.00-6235.38j;
}

object node {
  name R1_12_47_2_node_87;
  phases BN;
  nominal_voltage 7200.0;
  voltage_B -3600.00-6235.38j;
}

object node {
  name R1_12_47_2_node_91;
  phases BN;
  nominal_voltage 7200.0;
  voltage_B -3600.00-6235.38j;
}

object node {
  name R1_12_47_2_node_92;
  phases BN;
  nominal_voltage 7200.0;
  voltage_B -3600.00-6235.38j;
}

object node {
  name R1_12_47_2_node_130;
  phases AN;
  nominal_voltage 7200.0;
  voltage_A 7200.0+0.0j;
}

object node {
  name R1_12_47_2_node_132;
  phases AN;
  nominal_voltage 7200.0;
  voltage_A 7200.0+0.0j;
}

object node {
  name R1_12_47_2_node_134;
  phases AN;
  nominal_voltage 7200.0;
  voltage_A 7200.0+0.0j;
}

object node {
  name R1_12_47_2_node_301;
  phases AN;
  nominal_voltage 7200.0;
  voltage_A 7200.0+0.0j;
}

object node {
  name R1_12_47_2_node_147;
  phases AN;
  nominal_voltage 7200.0;
  voltage_A 7200.0+0.0j;
}

object node {
  name R1_12_47_2_node_151;
  phases AN;
  nominal_voltage 7200.0;
  voltage_A 7200.0+0.0j;
}

object node {
  name R1_12_47_2_node_152;
  phases AN;
  nominal_voltage 7200.0;
  voltage_A 7200.0+0.0j;
}

object node {
  name R1_12_47_2_node_153;
  phases AN;
  nominal_voltage 7200.0;
  voltage_A 7200.0+0.0j;
}

object node {
  name R1_12_47_2_node_154;
  phases AN;