clock {
     timezone EST+5EDT;
  timestamp '2010-06-01 00:00:00';
  stoptime '2010-06-03 00:00:00';
}
#set profiler=1
module tape;
module powerflow{
     solver_method NR;
      default_maximum_voltage_error 1e-6;
};
#ifdef WANT_VI_DUMP
#endif
module climate;
module generators;
module connection;
module residential {
  implicit_enduses NONE;
};
#include "../../../../support/schedules/appliance_schedules.glm";
#include "../../../../support/schedules/water_and_setpoint_schedule_v5.glm";
#include "../../../../support/schedules/commercial_schedules.glm";
#set minimum_timestep=15;
#set relax_naming_rules=1;
#set warn=0;
object metrics_collector_writer {
  interval 300;
  interim 43200;
  filename ${METRICS_FILE};
  // filename R1-12.47-4_processed_metrics.json;
};
object climate {
  name localWeather;
  // tmyfile "../../../../support/weather/AZ-Tucson_International_Ap.tmy3";
  // agent name weather
  interpolate QUADRATIC;
  latitude 30.0;
  longitude -110.0;
  // altitude 0.0;
  tz_meridian 0.0;
};
// default IEEE 1547-2018 settings for Category B
#define INV_VBASE=240.0
#define INV_V1=0.92
#define INV_V2=0.98
#define INV_V3=1.02
#define INV_V4=1.08
#define INV_Q1=0.44
#define INV_Q2=0.00
#define INV_Q3=0.00
#define INV_Q4=-0.44
#define INV_VIN=200.0
#define INV_IIN=32.5
#define INV_VVLOCKOUT=300.0
#define INV_VW_V1=1.05 // 1.05833
#define INV_VW_V2=1.10
#define INV_VW_P1=1.0
#define INV_VW_P2=0.0
#ifdef WANT_VI_DUMP
object voltdump {
  filename Voltage_Dump_R1-12.47-4_processed.csv;
  mode polar;
}
object currdump {
  filename Current_Dump_R1-12.47-4_processed.csv;
  mode polar;
}
#endif // &&& end of common section for combining TESP cases
// solar inverter mode on this feeder
#define INVERTER_MODE=CONSTANT_PF
object transformer_configuration {
  name XF1_PADMOUNT_AS_25;
  power_rating 25.00;
  powerA_rating 25.00;
  powerB_rating 0.0;
  powerC_rating 0.0;
  install_type PADMOUNT;
  connect_type SINGLE_PHASE_CENTER_TAPPED;
  primary_voltage 7200.0;
  secondary_voltage 120.0;
  resistance 0.00800;
  resistance1 0.01600;
  resistance2 0.01600;
  reactance 0.01208;
  reactance1 0.00604;
  reactance2 0.00604;
  shunt_resistance 192.31;
  shunt_reactance 51.81;
}
object transformer_configuration {
  name XF1_PADMOUNT_BS_37p5;
  power_rating 37.50;
  powerA_rating 0.0;
  powerB_rating 37.50;
  powerC_rating 0.0;
  install_type PADMOUNT;
  connect_type SINGLE_PHASE_CENTER_TAPPED;
  primary_voltage 7200.0;
  secondary_voltage 120.0;
  resistance 0.00725;
  resistance1 0.01450;
  resistance2 0.01450;
  reactance 0.01320;
  reactance1 0.00660;
  reactance2 0.00660;
  shunt_resistance 212.77;
  shunt_reactance 57.47;
}
object transformer_configuration {
  name XF1_PADMOUNT_CS_37p5;
  power_rating 37.50;
  powerA_rating 0.0;
  powerB_rating 0.0;
  powerC_rating 37.50;
  install_type PADMOUNT;
  connect_type SINGLE_PHASE_CENTER_TAPPED;
  primary_voltage 7200.0;
  secondary_voltage 120.0;
  resistance 0.00725;
  resistance1 0.01450;
  resistance2 0.01450;
  reactance 0.01320;
  reactance1 0.00660;
  reactance2 0.00660;
  shunt_resistance 212.77;
  shunt_reactance 57.47;
}
object transformer_configuration {
  name XF1_PADMOUNT_AS_37p5;
  power_rating 37.50;
  powerA_rating 37.50;
  powerB_rating 0.0;
  powerC_rating 0.0;
  install_type PADMOUNT;
  connect_type SINGLE_PHASE_CENTER_TAPPED;
  primary_voltage 7200.0;
  secondary_voltage 120.0;
  resistance 0.00725;
  resistance1 0.01450;
  resistance2 0.01450;
  reactance 0.01320;
  reactance1 0.00660;
  reactance2 0.00660;
  shunt_resistance 212.77;
  shunt_reactance 57.47;
}
object transformer_configuration {
  name XF1_PADMOUNT_CS_25;
  power_rating 25.00;
  powerA_rating 0.0;
  powerB_rating 0.0;
  powerC_rating 25.00;
  install_type PADMOUNT;
  connect_type SINGLE_PHASE_CENTER_TAPPED;
  primary_voltage 7200.0;
  secondary_voltage 120.0;
  resistance 0.00800;
  resistance1 0.01600;
  resistance2 0.01600;
  reactance 0.01208;
  reactance1 0.00604;
  reactance2 0.00604;
  shunt_resistance 192.31;
  shunt_reactance 51.81;
}
object transformer_configuration {
  name XF1_PADMOUNT_AS_75;
  power_rating 75.00;
  powerA_rating 75.00;
  powerB_rating 0.0;
  powerC_rating 0.0;
  install_type PADMOUNT;
  connect_type SINGLE_PHASE_CENTER_TAPPED;
  primary_voltage 7200.0;
  secondary_voltage 120.0;
  resistance 0.00625;
  resistance1 0.01250;
  resistance2 0.01250;
  reactance 0.01352;
  reactance1 0.00676;
  reactance2 0.00676;
  shunt_resistance 238.10;
  shunt_reactance 67.11;
}
object transformer_configuration {
  name XF1_PADMOUNT_BS_100;
  power_rating 100.00;
  powerA_rating 0.0;
  powerB_rating 100.00;
  powerC_rating 0.0;
  install_type PADMOUNT;
  connect_type SINGLE_PHASE_CENTER_TAPPED;
  primary_voltage 7200.0;
  secondary_voltage 120.0;
  resistance 0.00600;
  resistance1 0.01200;
  resistance2 0.01200;
  reactance 0.01752;
  reactance1 0.00876;
  reactance2 0.00876;
  shunt_resistance 250.00;
  shunt_reactance 68.97;
}
object transformer_configuration {
  name XF1_PADMOUNT_CS_75;
  power_rating 75.00;
  powerA_rating 0.0;
  powerB_rating 0.0;
  powerC_rating 75.00;
  install_type PADMOUNT;
  connect_type SINGLE_PHASE_CENTER_TAPPED;
  primary_voltage 7200.0;
  secondary_voltage 120.0;
  resistance 0.00625;
  resistance1 0.01250;
  resistance2 0.01250;
  reactance 0.01352;
  reactance1 0.00676;
  reactance2 0.00676;
  shunt_resistance 238.10;
  shunt_reactance 67.11;
}
object transformer_configuration {
  name XF1_PADMOUNT_AS_167;
  power_rating 167.00;
  powerA_rating 167.00;
  powerB_rating 0.0;
  powerC_rating 0.0;
  install_type PADMOUNT;
  connect_type SINGLE_PHASE_CENTER_TAPPED;
  primary_voltage 7200.0;
  secondary_voltage 120.0;
  resistance 0.00575;
  resistance1 0.01150;
  resistance2 0.01150;
  reactance 0.02216;
  reactance1 0.01108;
  reactance2 0.01108;
  shunt_resistance 263.16;
  shunt_reactance 60.24;
}
object transformer_configuration {
  name XF1_PADMOUNT_BS_250;
  power_rating 250.00;
  powerA_rating 0.0;
  powerB_rating 250.00;
  powerC_rating 0.0;
  install_type PADMOUNT;
  connect_type SINGLE_PHASE_CENTER_TAPPED;
  primary_voltage 7200.0;
  secondary_voltage 120.0;
  resistance 0.00550;
  resistance1 0.01100;
  resistance2 0.01100;
  reactance 0.03080;
  reactance1 0.01540;
  reactance2 0.01540;
  shunt_resistance 277.78;
  shunt_reactance 55.25;
}
object transformer_configuration {
  name XF1_PADMOUNT_CS_167;
  power_rating 167.00;
  powerA_rating 0.0;
  powerB_rating 0.0;
  powerC_rating 167.00;
  install_type PADMOUNT;
  connect_type SINGLE_PHASE_CENTER_TAPPED;
  primary_voltage 7200.0;
  secondary_voltage 120.0;
  resistance 0.00575;
  resistance1 0.01150;
  resistance2 0.01150;
  reactance 0.02216;
  reactance1 0.01108;
  reactance2 0.01108;
  shunt_resistance 263.16;
  shunt_reactance 60.24;
}
object transformer_configuration {
  name XF1_PADMOUNT_BS_167;
  power_rating 167.00;
  powerA_rating 0.0;
  powerB_rating 167.00;
  powerC_rating 0.0;
  install_type PADMOUNT;
  connect_type SINGLE_PHASE_CENTER_TAPPED;
  primary_voltage 7200.0;
  secondary_voltage 120.0;
  resistance 0.00575;
  resistance1 0.01150;
  resistance2 0.01150;
  reactance 0.02216;
  reactance1 0.01108;
  reactance2 0.01108;
  shunt_resistance 263.16;
  shunt_reactance 60.24;
}
object transformer_configuration {
  name XF1_PADMOUNT_AS_50;
  power_rating 50.00;
  powerA_rating 50.00;
  powerB_rating 0.0;
  powerC_rating 0.0;
  install_type PADMOUNT;
  connect_type SINGLE_PHASE_CENTER_TAPPED;
  primary_voltage 7200.0;
  secondary_voltage 120.0;
  resistance 0.00650;
  resistance1 0.01300;
  resistance2 0.01300;
  reactance 0.01416;
  reactance1 0.00708;
  reactance2 0.00708;
  shunt_resistance 222.22;
  shunt_reactance 64.94;
}
object transformer_configuration {
  name XF1_PADMOUNT_BS_75;
  power_rating 75.00;
  powerA_rating 0.0;
  powerB_rating 75.00;
  powerC_rating 0.0;
  install_type PADMOUNT;
  connect_type SINGLE_PHASE_CENTER_TAPPED;
  primary_voltage 7200.0;
  secondary_voltage 120.0;
  resistance 0.00625;
  resistance1 0.01250;
  resistance2 0.01250;
  reactance 0.01352;
  reactance1 0.00676;
  reactance2 0.00676;
  shunt_resistance 238.10;
  shunt_reactance 67.11;
}
object transformer_configuration {
  name XF1_PADMOUNT_CS_50;
  power_rating 50.00;
  powerA_rating 0.0;
  powerB_rating 0.0;
  powerC_rating 50.00;
  install_type PADMOUNT;
  connect_type SINGLE_PHASE_CENTER_TAPPED;
  primary_voltage 7200.0;
  secondary_voltage 120.0;
  resistance 0.00650;
  resistance1 0.01300;
  resistance2 0.01300;
  reactance 0.01416;
  reactance1 0.00708;
  reactance2 0.00708;
  shunt_resistance 222.22;
  shunt_reactance 64.94;
}
object transformer_configuration {
  name XF1_PADMOUNT_AS_250;
  power_rating 250.00;
  powerA_rating 250.00;
  powerB_rating 0.0;
  powerC_rating 0.0;
  install_type PADMOUNT;
  connect_type SINGLE_PHASE_CENTER_TAPPED;
  primary_voltage 7200.0;
  secondary_voltage 120.0;
  resistance 0.00550;
  resistance1 0.01100;
  resistance2 0.01100;
  reactance 0.03080;
  reactance1 0.01540;
  reactance2 0.01540;
  shunt_resistance 277.78;
  shunt_reactance 55.25;
}
object transformer_configuration {
  name XF1_PADMOUNT_CS_250;
  power_rating 250.00;
  powerA_rating 0.0;
  powerB_rating 0.0;
  powerC_rating 250.00;
  install_type PADMOUNT;
  connect_type SINGLE_PHASE_CENTER_TAPPED;
  primary_voltage 7200.0;
  secondary_voltage 120.0;
  resistance 0.00550;
  resistance1 0.01100;
  resistance2 0.01100;
  reactance 0.03080;
  reactance1 0.01540;
  reactance2 0.01540;
  shunt_resistance 277.78;
  shunt_reactance 55.25;
}
object transformer_configuration {
  name XF1_PADMOUNT_AS_100;
  power_rating 100.00;
  powerA_rating 100.00;
  powerB_rating 0.0;
  powerC_rating 0.0;
  install_type PADMOUNT;
  connect_type SINGLE_PHASE_CENTER_TAPPED;
  primary_voltage 7200.0;
  secondary_voltage 120.0;
  resistance 0.00600;
  resistance1 0.01200;
  resistance2 0.01200;
  reactance 0.01752;
  reactance1 0.00876;
  reactance2 0.00876;
  shunt_resistance 250.00;
  shunt_reactance 68.97;
}
object transformer_configuration {
  name XF1_PADMOUNT_CS_100;
  power_rating 100.00;
  powerA_rating 0.0;
  powerB_rating 0.0;
  powerC_rating 100.00;
  install_type PADMOUNT;
  connect_type SINGLE_PHASE_CENTER_TAPPED;
  primary_voltage 7200.0;
  secondary_voltage 120.0;
  resistance 0.00600;
  resistance1 0.01200;
  resistance2 0.01200;
  reactance 0.01752;
  reactance1 0.00876;
  reactance2 0.00876;
  shunt_resistance 250.00;
  shunt_reactance 68.97;
}
object transformer_configuration {
  name XF1_PADMOUNT_AS_15;
  power_rating 15.00;
  powerA_rating 15.00;
  powerB_rating 0.0;
  powerC_rating 0.0;
  install_type PADMOUNT;
  connect_type SINGLE_PHASE_CENTER_TAPPED;
  primary_voltage 7200.0;
  secondary_voltage 120.0;
  resistance 0.00850;
  resistance1 0.01700;
  resistance2 0.01700;
  reactance 0.01176;
  reactance1 0.00588;
  reactance2 0.00588;
  shunt_resistance 166.67;
  shunt_reactance 39.53;
}
object transformer_configuration {
  name XF1_PADMOUNT_BS_25;
  power_rating 25.00;
  powerA_rating 0.0;
  powerB_rating 25.00;
  powerC_rating 0.0;
  install_type PADMOUNT;
  connect_type SINGLE_PHASE_CENTER_TAPPED;
  primary_voltage 7200.0;
  secondary_voltage 120.0;
  resistance 0.00800;
  resistance1 0.01600;
  resistance2 0.01600;
  reactance 0.01208;
  reactance1 0.00604;
  reactance2 0.00604;
  shunt_resistance 192.31;
  shunt_reactance 51.81;
}
object transformer_configuration {
  name XF1_PADMOUNT_CS_15;
  power_rating 15.00;
  powerA_rating 0.0;
  powerB_rating 0.0;
  powerC_rating 15.00;
  install_type PADMOUNT;
  connect_type SINGLE_PHASE_CENTER_TAPPED;
  primary_voltage 7200.0;
  secondary_voltage 120.0;
  resistance 0.00850;
  resistance1 0.01700;
  resistance2 0.01700;
  reactance 0.01176;
  reactance1 0.00588;
  reactance2 0.00588;
  shunt_resistance 166.67;
  shunt_reactance 39.53;
}
object transformer_configuration {
  name XF3_PADMOUNT_ABCN_112p5;
  power_rating 112.50;
  powerA_rating 37.50;
  powerB_rating 37.50;
  powerC_rating 37.50;
  install_type PADMOUNT;
  connect_type WYE_WYE;
  primary_voltage 12470.0;
  secondary_voltage 480.0;
  resistance 0.01450;
  reactance 0.02850;
  shunt_resistance 169.49;
  shunt_reactance 33.44;
}
object transformer_configuration {
  name XF3_PADMOUNT_ABCN_500;
  power_rating 500.00;
  powerA_rating 166.67;
  powerB_rating 166.67;
  powerC_rating 166.67;
  install_type PADMOUNT;
  connect_type WYE_WYE;
  primary_voltage 12470.0;
  secondary_voltage 480.0;
  resistance 0.01100;
  reactance 0.04880;
  shunt_resistance 222.22;
  shunt_reactance 44.25;
}
object transformer_configuration {
  name XF3_PADMOUNT_ABCN_300;
  power_rating 300.00;
  powerA_rating 100.00;
  powerB_rating 100.00;
  powerC_rating 100.00;
  install_type PADMOUNT;
  connect_type WYE_WYE;
  primary_voltage 12470.0;
  secondary_voltage 480.0;
  resistance 0.01300;
  reactance 0.04830;
  shunt_resistance 217.39;
  shunt_reactance 44.44;
}
object transformer_configuration {
  name XF3_PADMOUNT_ABCN_225;
  power_rating 225.00;
  powerA_rating 75.00;
  powerB_rating 75.00;
  powerC_rating 75.00;
  install_type PADMOUNT;
  connect_type WYE_WYE;
  primary_voltage 12470.0;
  secondary_voltage 480.0;
  resistance 0.01300;
  reactance 0.03520;
  shunt_resistance 200.00;
  shunt_reactance 40.00;
}
object transformer_configuration {
  name XF3_PADMOUNT_ABCN_150;
  power_rating 150.00;
  powerA_rating 50.00;
  powerB_rating 50.00;
  powerC_rating 50.00;
  install_type PADMOUNT;
  connect_type WYE_WYE;
  primary_voltage 12470.0;
  secondary_voltage 480.0;
  resistance 0.01300;
  reactance 0.03250;
  shunt_resistance 185.19;
  shunt_reactance 36.36;
}
object triplex_line_conductor {
  name triplex_4/0_aa;
  resistance 0.48;
  geometric_mean_radius 0.0158;
  rating.summer.continuous 1000.0;
  rating.summer.emergency 1000.0;
  rating.winter.continuous 1000.0;
  rating.winter.emergency 1000.0;
}
object triplex_line_configuration {
  name tpx_config;
  conductor_1 triplex_4/0_aa;
  conductor_2 triplex_4/0_aa;
  conductor_N triplex_4/0_aa;
  insulation_thickness 0.08;
  diameter 0.522;
}
object regulator_configuration {
  name feeder_reg_cfg;
  Control OUTPUT_VOLTAGE;
  band_center 7500.0;
  band_width 120;
  connect_type WYE_WYE;
  time_delay 30;
  raise_taps 16;
  lower_taps 16;
  regulation 0.10;
  tap_pos_A 0;
  tap_pos_B 0;
  tap_pos_C 0;
}
object line_spacing {
  name ID_55;
  distance_AB 52.0 in;
  distance_BC 52.0 in;
  distance_AC 52.0 in;
  distance_AN 72.0 in;
  distance_BN 72.0 in;
  distance_CN 72.0 in;
}
object line_spacing {
  name ID_56;
  distance_AN 72.0 in;
}
object line_spacing {
  name ID_57;
  distance_CN 72.0 in;
}
object line_configuration {
  name ID_48;
  conductor_A ID_877;
  conductor_B ID_877;
  conductor_C ID_877;
  conductor_N ID_877;
  spacing ID_55;
}
object line_configuration {
  name ID_49;
  conductor_A ID_878;
  conductor_B ID_878;
  conductor_C ID_878;
  conductor_N ID_878;
  spacing ID_55;
}
object line_configuration {
  name ID_50;
  conductor_A ID_879;
  conductor_B ID_879;
  conductor_C ID_879;
  conductor_N ID_879;
  spacing ID_55;
}
object line_configuration {
  name ID_51;
  conductor_A ID_879;
  conductor_N ID_879;
  spacing ID_56;
}
object line_configuration {
  name ID_52;
  conductor_C ID_879;
  conductor_N ID_879;
  spacing ID_57;
}
object line_configuration {
  name ID_53;
  conductor_A ID_878;
  conductor_N ID_878;
  spacing ID_56;
}
object line_configuration {
  name ID_54;
  conductor_C ID_878;
  conductor_N ID_878;
  spacing ID_57;
}
object triplex_line_conductor {
  name triplex_4/0 AA;
  resistance 0.48;
  geometric_mean_radius 0.0158;
  rating.summer.continuous 1000.0;
  rating.summer.emergency 1000.0;
  rating.winter.continuous 1000.0;
  rating.winter.emergency 1000.0;
}
object triplex_line_configuration {
  name ID_486;
  conductor_1 triplex_4/0 AA;
  conductor_2 triplex_4/0 AA;
  conductor_N triplex_4/0 AA;
  insulation_thickness 0.08;
  diameter 0.522;
}
object underground_line_conductor {
  name ID_877;
  rating.summer.continuous 775.0;
  outer_diameter 1.87;
  conductor_gmr 0.0371 ft;
  conductor_diameter 1.15;
  conductor_resistance 0.1162;
  shield_gmr 0.069167;
  shield_resistance 2.0135;
  shield_thickness 0.005;
  shield_diameter 1.66;
  insulation_relative_permitivitty 2.3;
}
object underground_line_conductor {
  name ID_878;
  rating.summer.continuous 488.0;
  outer_diameter 2.15;
  conductor_gmr 0.0371 ft;
  conductor_diameter 1.152;
  conductor_resistance 0.091872;
  neutral_gmr 0.00330 ft;
  neutral_resistance 5.9026;
  neutral_diameter 0.1019;
  neutral_strands 20.0;
  insulation_relative_permitivitty 2.3;
}
object underground_line_conductor {
  name ID_879;
  rating.summer.continuous 142.0;
  outer_diameter 1.27;
  conductor_gmr 0.01142 ft;
  conductor_diameter 0.362;
  conductor_resistance 0.88704;
  neutral_gmr 0.00208 ft;
  neutral_resistance 14.87;
  neutral_diameter 0.0641;
  neutral_strands 16.0;
  insulation_relative_permitivitty 2.3;
}
object fuse {
  name R1_12_47_4_fuse_1;
// downstream 67.77 kva on ABCS
  phases ABCN;
  from R1_12_47_4_node_10;
  to R1_12_47_4_node_169;
  current_limit 40;
  status CLOSED;
  mean_replacement_time 3600;
}
object fuse {
  name R1_12_47_4_fuse_2;
// downstream 27.07 kva on AS
  phases AN;
  from R1_12_47_4_node_21;
  to R1_12_47_4_node_287;
  current_limit 40;
  status CLOSED;
  mean_replacement_time 3600;
}
object fuse {
  name R1_12_47_4_fuse_3;
// downstream 18.14 kva on AS
  phases AN;
  from R1_12_47_4_node_24;
  to R1_12_47_4_node_288;
  current_limit 40;
  status CLOSED;
  mean_replacement_time 3600;
}
object fuse {
  name R1_12_47_4_fuse_4;
// downstream 27.83 kva on AS
  phases AN;
  from R1_12_47_4_node_27;
  to R1_12_47_4_node_289;
  current_limit 40;
  status CLOSED;
  mean_replacement_time 3600;
}
object fuse {
  name R1_12_47_4_fuse_5;
// downstream 22.95 kva on CS
  phases CN;
  from R1_12_47_4_node_38;
  to R1_12_47_4_node_290;
  current_limit 40;
  status CLOSED;
  mean_replacement_time 3600;
}
object fuse {
  name R1_12_47_4_fuse_6;
// downstream 26.66 kva on CS
  phases CN;
  from R1_12_47_4_node_41;
  to R1_12_47_4_node_291;
  current_limit 40;
  status CLOSED;
  mean_replacement_time 3600;
}
object fuse {
  name R1_12_47_4_fuse_7;
// downstream 21.57 kva on CS
  phases CN;
  from R1_12_47_4_node_43;
  to R1_12_47_4_node_292;
  current_limit 40;
  status CLOSED;
  mean_replacement_time 3600;
}
object fuse {
  name R1_12_47_4_fuse_8;
// downstream 18.48 kva on CS
  phases CN;
  from R1_12_47_4_node_50;
  to R1_12_47_4_node_293;
  current_limit 40;
  status CLOSED;
  mean_replacement_time 3600;
}
object fuse {
  name R1_12_47_4_fuse_9;
// downstream 66.14 kva on ABC
  phases ABCN;
  from R1_12_47_4_node_54;
  to R1_12_47_4_node_294;
  current_limit 40;
  status CLOSED;
  mean_replacement_time 3600;
}
object fuse {
  name R1_12_47_4_fuse_10;
// downstream 283.04 kva on ABC
  phases ABCN;
  from R1_12_47_4_node_55;
  to R1_12_47_4_node_295;
  current_limit 40;
  status CLOSED;
  mean_replacement_time 3600;
}
object fuse {
  name R1_12_47_4_fuse_11;
// downstream 194.07 kva on ABC
  phases ABCN;
  from R1_12_47_4_node_57;
  to R1_12_47_4_node_296;
  current_limit 40;
  status CLOSED;
  mean_replacement_time 3600;
}
object fuse {
  name R1_12_47_4_fuse_12;
// downstream 194.42 kva on ABCS
  phases ABCN;
  from R1_12_47_4_node_59;
  to R1_12_47_4_node_297;
  current_limit 40;
  status CLOSED;
  mean_replacement_time 3600;
}
object fuse {
  name R1_12_47_4_fuse_13;
// downstream 385.34 kva on ABCS
  phases ABCN;
  from R1_12_47_4_node_61;
  to R1_12_47_4_node_298;
  current_limit 65;
  status CLOSED;
  mean_replacement_time 3600;
}
object fuse {
  name R1_12_47_4_fuse_14;
// downstream 350.84 kva on ABCS
  phases ABCN;
  from R1_12_47_4_node_63;
  to R1_12_47_4_node_299;
  current_limit 65;
  status CLOSED;
  mean_replacement_time 3600;
}
object fuse {
  name R1_12_47_4_fuse_15;
// downstream 325.79 kva on ABCS
  phases ABCN;
  from R1_12_47_4_node_64;
  to R1_12_47_4_node_300;
  current_limit 40;
  status CLOSED;
  mean_replacement_time 3600;
}
object fuse {
  name R1_12_47_4_fuse_16;
// downstream 24.33 kva on AS
  phases AN;
  from R1_12_47_4_node_19;
  to R1_12_47_4_node_301;
  current_limit 40;
  status CLOSED;
  mean_replacement_time 3600;
}
object fuse {
  name R1_12_47_4_fuse_17;
// downstream 97.38 kva on AS
  phases AN;
  from R1_12_47_4_node_30;
  to R1_12_47_4_node_260;
  current_limit 40;
  status CLOSED;
  mean_replacement_time 3600;
}
object fuse {
  name R1_12_47_4_fuse_18;
// downstream 89.66 kva on CS
  phases CN;
  from R1_12_47_4_node_30;
  to R1_12_47_4_node_268;
  current_limit 40;
  status CLOSED;
  mean_replacement_time 3600;
}
object fuse {
  name R1_12_47_4_fuse_19;
// downstream 349.18 kva on ABC
  phases ABCN;
  from R1_12_47_4_node_30;
  to R1_12_47_4_node_274;
  current_limit 65;
  status CLOSED;
  mean_replacement_time 3600;
}
object fuse {
  name R1_12_47_4_fuse_20;
// downstream 194.07 kva on ABC
  phases ABCN;
  from R1_12_47_4_node_56;
  to R1_12_47_4_node_276;
  current_limit 40;
  status CLOSED;
  mean_replacement_time 3600;
}
object fuse {
  name R1_12_47_4_fuse_21;
// downstream 130.97 kva on ABCS
  phases ABCN;
  from R1_12_47_4_node_58;
  to R1_12_47_4_node_195;
  current_limit 40;
  status CLOSED;
  mean_replacement_time 3600;
}
object fuse {
  name R1_12_47_4_fuse_22;
// downstream 540.85 kva on ABCS
  phases ABCN;
  from R1_12_47_4_node_84;
  to R1_12_47_4_node_196;
  current_limit 65;
  status CLOSED;
  mean_replacement_time 3600;
}
object fuse {
  name R1_12_47_4_fuse_23;
// downstream 136.01 kva on ABC
  phases ABCN;
  from R1_12_47_4_node_87;
  to R1_12_47_4_node_197;
  current_limit 40;
  status CLOSED;
  mean_replacement_time 3600;
}
object fuse {
  name R1_12_47_4_fuse_24;
// downstream 217.18 kva on ABCS
  phases ABCN;
  from R1_12_47_4_node_91;
  to R1_12_47_4_node_198;
  current_limit 40;
  status CLOSED;
  mean_replacement_time 3600;
}
object fuse {
  name R1_12_47_4_fuse_25;
// downstream 170.51 kva on ABCS
  phases ABCN;
  from R1_12_47_4_node_93;
  to R1_12_47_4_node_199;
  current_limit 40;
  status CLOSED;
  mean_replacement_time 3600;
}
object fuse {
  name R1_12_47_4_fuse_26;
// downstream 387.69 kva on ABCS
  phases ABCN;
  from R1_12_47_4_node_170;
  to R1_12_47_4_node_73;
  current_limit 65;
  status CLOSED;
  mean_replacement_time 3600;
}
object fuse {
  name R1_12_47_4_fuse_27;
  phases ABCN;
  from R1_12_47_4_node_175;
  to R1_12_47_4_node_74;
  current_limit 50000;
  status CLOSED;
  mean_replacement_time 3600;
}
object fuse {
  name R1_12_47_4_fuse_28;
// downstream 1129.74 kva on ABCS
  phases ABCN;
  from R1_12_47_4_node_176;
  to R1_12_47_4_node_77;
  current_limit 200;
  status CLOSED;
  mean_replacement_time 3600;
}
object fuse {
  name R1_12_47_4_fuse_29;
// downstream 325.38 kva on ABCS
  phases ABCN;
  from R1_12_47_4_node_181;
  to R1_12_47_4_node_76;
  current_limit 40;
  status CLOSED;
  mean_replacement_time 3600;
}
object fuse {
  name R1_12_47_4_fuse_30;
// downstream 112.01 kva on ABC
  phases ABCN;
  from R1_12_47_4_node_120;
  to R1_12_47_4_node_224;
  current_limit 40;
  status CLOSED;
  mean_replacement_time 3600;
}
object fuse {
  name R1_12_47_4_fuse_31;
// downstream 115.71 kva on ABC
  phases ABCN;
  from R1_12_47_4_node_140;
  to R1_12_47_4_node_225;
  current_limit 40;
  status CLOSED;
  mean_replacement_time 3600;
}
object fuse {
  name R1_12_47_4_fuse_32;
  phases ABCN;
  from R1_12_47_4_node_144;
  to R1_12_47_4_node_226;
  current_limit 50000;
  status CLOSED;
  mean_replacement_time 3600;
}
object fuse {
  name R1_12_47_4_fuse_33;
// downstream 250.48 kva on ABC
  phases ABCN;
  from R1_12_47_4_node_111;
  to R1_12_47_4_node_227;
  current_limit 40;
  status CLOSED;
  mean_replacement_time 3600;
}
object fuse {
  name R1_12_47_4_fuse_34;
// downstream 94.78 kva on ABC
  phases ABCN;
  from R1_12_47_4_node_113;
  to R1_12_47_4_node_228;
  current_limit 40;
  status CLOSED;
  mean_replacement_time 3600;
}
object fuse {
  name R1_12_47_4_fuse_35;
// downstream 205.16 kva on ABC
  phases ABCN;
  from R1_12_47_4_node_115;
  to R1_12_47_4_node_229;
  current_limit 40;
  status CLOSED;
  mean_replacement_time 3600;
}
object fuse {
  name R1_12_47_4_fuse_36;
// downstream 151.96 kva on ABC
  phases ABCN;
  from R1_12_47_4_node_126;
  to R1_12_47_4_node_230;
  current_limit 40;
  status CLOSED;
  mean_replacement_time 3600;
}
object fuse {
  name R1_12_47_4_fuse_37;
// downstream 379.67 kva on ABC
  phases ABCN;
  from R1_12_47_4_node_204;
  to R1_12_47_4_node_107;
  current_limit 65;
  status CLOSED;
  mean_replacement_time 3600;
}
object fuse {
  name R1_12_47_4_fuse_38;
// downstream 550.41 kva on ABC
  phases ABCN;
  from R1_12_47_4_node_209;
  to R1_12_47_4_node_106;
  current_limit 65;
  status CLOSED;
  mean_replacement_time 3600;
}
object fuse {
  name R1_12_47_4_fuse_39;
// downstream 376.49 kva on ABCS
  phases ABCN;
  from R1_12_47_4_node_153;
  to R1_12_47_4_node_237;
  current_limit 65;
  status CLOSED;
  mean_replacement_time 3600;
}
object fuse {
  name R1_12_47_4_fuse_40;
// downstream 676.85 kva on ABCS
  phases ABCN;
  from R1_12_47_4_node_101;
  to R1_12_47_4_node_235;
  current_limit 100;
  status CLOSED;
  mean_replacement_time 3600;
}
object fuse {
  name R1_12_47_4_fuse_41;
// downstream 38.17 kva on ABCS
  phases ABCN;
  from R1_12_47_4_node_157;
  to R1_12_47_4_node_247;
  current_limit 40;
  status CLOSED;
  mean_replacement_time 3600;
}
object fuse {
  name R1_12_47_4_fuse_42;
  phases ABCN;
  from R1_12_47_4_node_159;
  to R1_12_47_4_node_248;
  current_limit 50000;
  status CLOSED;
  mean_replacement_time 3600;
}
object fuse {
  name R1_12_47_4_fuse_43;
// downstream 182.45 kva on ABC
  phases ABCN;
  from R1_12_47_4_node_162;
  to R1_12_47_4_node_249;
  current_limit 40;
  status CLOSED;
  mean_replacement_time 3600;
}
object fuse {
  name R1_12_47_4_fuse_44;
// downstream 155.88 kva on ABC
  phases ABCN;
  from R1_12_47_4_node_164;
  to R1_12_47_4_node_250;
  current_limit 40;
  status CLOSED;
  mean_replacement_time 3600;
}
object switch {
  name R1_12_47_4_switch_1;
  phases ABCN;
  from R1_12_47_4_node_4;
  to R1_12_47_4_node_5;
  status CLOSED;
}
object switch {
  name R1_12_47_4_switch_2;
// downstream 325.79 kva on ABCS
  phases ABCN;
  from R1_12_47_4_node_10;
  to R1_12_47_4_node_167;
  status CLOSED;
}
object switch {
  name R1_12_47_4_switch_3;
  phases ABCN;
  from R1_12_47_4_node_275;
  to R1_12_47_4_node_68;
  status CLOSED;
}
object switch {
  name R1_12_47_4_switch_4;
  phases AN;
  from R1_12_47_4_node_251;
  to R1_12_47_4_node_13;
  status CLOSED;
}
object switch {
  name R1_12_47_4_switch_5;
  phases CN;
  from R1_12_47_4_node_286;
  to R1_12_47_4_node_31;
  status CLOSED;
}
object switch {
  name R1_12_47_4_switch_6;
  phases ABCN;
  from R1_12_47_4_node_194;
  to R1_12_47_4_node_102;
  status CLOSED;
}
object switch {
  name R1_12_47_4_switch_7;
  phases ABCN;
  from R1_12_47_4_node_193;
  to R1_12_47_4_node_96;
  status CLOSED;
}
object switch {
  name R1_12_47_4_switch_8;
  phases ABCN;
  from R1_12_47_4_node_182;
  to R1_12_47_4_node_303;
  status CLOSED;
}
object switch {
  name R1_12_47_4_switch_9;
// downstream 387.69 kva on ABCS
  phases ABCN;
  from R1_12_47_4_node_72;
  to R1_12_47_4_node_172;
  status CLOSED;
}
object switch {
  name R1_12_47_4_switch_10;
  phases ABCN;
  from R1_12_47_4_node_173;
  to R1_12_47_4_node_71;
  status CLOSED;
}
object switch {
  name R1_12_47_4_switch_11;
// downstream 387.69 kva on ABCS
  phases ABCN;
  from R1_12_47_4_node_178;
  to R1_12_47_4_node_78;
  status CLOSED;
}
object switch {
  name R1_12_47_4_switch_12;
// downstream 1842.82 kva on ABCS
  phases ABCN;
  from R1_12_47_4_node_75;
  to R1_12_47_4_node_179;
  status CLOSED;
}
object switch {
  name R1_12_47_4_switch_13;
// downstream 3626.46 kva on ABCS
  phases ABCN;
  from R1_12_47_4_node_222;
  to R1_12_47_4_node_56;
  status CLOSED;
}
object switch {
  name R1_12_47_4_switch_14;
// downstream 912.72 kva on ABCS
  phases ABCN;
  from R1_12_47_4_node_8;
  to R1_12_47_4_node_7;
  status CLOSED;
}
object switch {
  name R1_12_47_4_switch_15;
  phases ABCN;
  from R1_12_47_4_node_115;
  to R1_12_47_4_node_214;
  status CLOSED;
}
object switch {
  name R1_12_47_4_switch_16;
// downstream 3626.46 kva on ABCS
  phases ABCN;
  from R1_12_47_4_node_206;
  to R1_12_47_4_node_108;
  status CLOSED;
}
object switch {
  name R1_12_47_4_switch_17;
// downstream 4556.55 kva on ABCS
  phases ABCN;
  from R1_12_47_4_node_109;
  to R1_12_47_4_node_207;
  status CLOSED;
}
object switch {
  name R1_12_47_4_switch_18;
  phases ABCN;
  from R1_12_47_4_node_166;
  to R1_12_47_4_node_236;
  status CLOSED;
}
object switch {
  name R1_12_47_4_switch_19;
// downstream 1842.82 kva on ABCS
  phases ABCN;
  from R1_12_47_4_node_101;
  to R1_12_47_4_node_234;
  status CLOSED;
}
object switch {
  name R1_12_47_4_switch_20;
  phases ABCN;
  from R1_12_47_4_node_302;
  to R1_12_47_4_node_232;
  status CLOSED;
}
object switch {
  name R1_12_47_4_switch_21;
  phases ABCN;
  from R1_12_47_4_node_1;
  to R1_12_47_4_node_233;
  status CLOSED;
}
object underground_line {
  name R1_12_47_4_ul_1;
  phases ABCN;
  from R1_12_47_4_node_302;
  to R1_12_47_4_node_3;
  length 1.000;
  configuration ID_48;
}
object underground_line {
  name R1_12_47_4_ul_2;
  phases ABCN;
  from R1_12_47_4_node_149;
  to R1_12_47_4_node_1;
  length 5.000;
  configuration ID_49;
}
object underground_line {
  name R1_12_47_4_ul_3;
// downstream 376.49 kva on ABCS
  phases ABCN;
  from R1_12_47_4_node_6;
  to R1_12_47_4_node_147;
  length 130.000;
  configuration ID_49;
}
object underground_line {
  name R1_12_47_4_ul_4;
// downstream 325.79 kva on ABCS
  phases ABCN;
  from R1_12_47_4_node_167;
  to R1_12_47_4_node_9;
  length 352.000;
  configuration ID_50;
}
object underground_line {
  name R1_12_47_4_ul_5;
// downstream 393.56 kva on ABCS
  phases ABCN;
  from R1_12_47_4_node_11;
  to R1_12_47_4_node_168;