clock {
     timezone EST+5EDT;
  timestamp '2010-06-01 00:00:00';
  stoptime '2010-06-03 00:00:00';
}
#set profiler=1
module tape;
module powerflow{
     solver_method NR;
      default_maximum_voltage_error 1e-6;
};
#ifdef WANT_VI_DUMP
#endif
module climate;
module generators;
module connection;
module residential {
  implicit_enduses NONE;
};
#include "../../../../support/schedules/appliance_schedules.glm";
#include "../../../../support/schedules/water_and_setpoint_schedule_v5.glm";
#include "../../../../support/schedules/commercial_schedules.glm";
#set minimum_timestep=15;
#set relax_naming_rules=1;
#set warn=0;
object metrics_collector_writer {
  interval 300;
  interim 43200;
  filename ${METRICS_FILE};
  // filename R3-12.47-2_processed_metrics.json;
};
object climate {
  name localWeather;
  // tmyfile "../../../../support/weather/AZ-Tucson_International_Ap.tmy3";
  // agent name weather
  interpolate QUADRATIC;
  latitude 30.0;
  longitude -110.0;
  // altitude 0.0;
  tz_meridian 0.0;
};
// default IEEE 1547-2018 settings for Category B
#define INV_VBASE=240.0
#define INV_V1=0.92
#define INV_V2=0.98
#define INV_V3=1.02
#define INV_V4=1.08
#define INV_Q1=0.44
#define INV_Q2=0.00
#define INV_Q3=0.00
#define INV_Q4=-0.44
#define INV_VIN=200.0
#define INV_IIN=32.5
#define INV_VVLOCKOUT=300.0
#define INV_VW_V1=1.05 // 1.05833
#define INV_VW_V2=1.10
#define INV_VW_P1=1.0
#define INV_VW_P2=0.0
#ifdef WANT_VI_DUMP
object voltdump {
  filename Voltage_Dump_R3-12.47-2_processed.csv;
  mode polar;
}
object currdump {
  filename Current_Dump_R3-12.47-2_processed.csv;
  mode polar;
}
#endif // &&& end of common section for combining TESP cases
// solar inverter mode on this feeder
#define INVERTER_MODE=CONSTANT_PF
object transformer_configuration {
  name XF1_POLETOP_BN_10;
  power_rating 10.00;
  powerA_rating 0.0;
  powerB_rating 10.00;
  powerC_rating 0.0;
  install_type POLETOP;
  connect_type WYE_WYE;
  primary_voltage 12470.0;
  secondary_voltage 208.0;
  resistance 0.01900;
  reactance 0.01770;
  shunt_resistance 126.58;
  shunt_reactance 22.57;
}
object transformer_configuration {
  name XF1_POLETOP_AN_10;
  power_rating 10.00;
  powerA_rating 10.00;
  powerB_rating 0.0;
  powerC_rating 0.0;
  install_type POLETOP;
  connect_type WYE_WYE;
  primary_voltage 12470.0;
  secondary_voltage 208.0;
  resistance 0.01900;
  reactance 0.01770;
  shunt_resistance 126.58;
  shunt_reactance 22.57;
}
object transformer_configuration {
  name XF1_POLETOP_AN_15;
  power_rating 15.00;
  powerA_rating 15.00;
  powerB_rating 0.0;
  powerC_rating 0.0;
  install_type POLETOP;
  connect_type WYE_WYE;
  primary_voltage 12470.0;
  secondary_voltage 208.0;
  resistance 0.01900;
  reactance 0.01770;
  shunt_resistance 126.58;
  shunt_reactance 22.57;
}
object transformer_configuration {
  name XF1_POLETOP_BN_5;
  power_rating 5.00;
  powerA_rating 0.0;
  powerB_rating 5.00;
  powerC_rating 0.0;
  install_type POLETOP;
  connect_type WYE_WYE;
  primary_voltage 12470.0;
  secondary_voltage 208.0;
  resistance 0.01900;
  reactance 0.01770;
  shunt_resistance 126.58;
  shunt_reactance 22.57;
}
object transformer_configuration {
  name XF1_POLETOP_BN_15;
  power_rating 15.00;
  powerA_rating 0.0;
  powerB_rating 15.00;
  powerC_rating 0.0;
  install_type POLETOP;
  connect_type WYE_WYE;
  primary_voltage 12470.0;
  secondary_voltage 208.0;
  resistance 0.01900;
  reactance 0.01770;
  shunt_resistance 126.58;
  shunt_reactance 22.57;
}
object transformer_configuration {
  name XF3_POLETOP_ABCN_45;
  power_rating 45.00;
  powerA_rating 15.00;
  powerB_rating 15.00;
  powerC_rating 15.00;
  install_type POLETOP;
  connect_type WYE_WYE;
  primary_voltage 12470.0;
  secondary_voltage 208.0;
  resistance 0.01750;
  reactance 0.02120;
  shunt_resistance 142.86;
  shunt_reactance 25.38;
}
object transformer_configuration {
  name XF2_POLETOP_ABN_30;
  power_rating 30.00;
  powerA_rating 15.00;
  powerB_rating 15.00;
  powerC_rating 0.0;
  install_type POLETOP;
  connect_type WYE_WYE;
  primary_voltage 12470.0;
  secondary_voltage 208.0;
  resistance 0.01900;
  reactance 0.01770;
  shunt_resistance 126.58;
  shunt_reactance 22.57;
}
object transformer_configuration {
  name XF1_POLETOP_AN_5;
  power_rating 5.00;
  powerA_rating 5.00;
  powerB_rating 0.0;
  powerC_rating 0.0;
  install_type POLETOP;
  connect_type WYE_WYE;
  primary_voltage 12470.0;
  secondary_voltage 208.0;
  resistance 0.01900;
  reactance 0.01770;
  shunt_resistance 126.58;
  shunt_reactance 22.57;
}
object transformer_configuration {
  name XF3_POLETOP_ABCN_30;
  power_rating 30.00;
  powerA_rating 10.00;
  powerB_rating 10.00;
  powerC_rating 10.00;
  install_type POLETOP;
  connect_type WYE_WYE;
  primary_voltage 12470.0;
  secondary_voltage 208.0;
  resistance 0.01900;
  reactance 0.01770;
  shunt_resistance 126.58;
  shunt_reactance 22.57;
}
object transformer_configuration {
  name XF3_POLETOP_ABCN_112p5;
  power_rating 112.50;
  powerA_rating 37.50;
  powerB_rating 37.50;
  powerC_rating 37.50;
  install_type POLETOP;
  connect_type WYE_WYE;
  primary_voltage 12470.0;
  secondary_voltage 480.0;
  resistance 0.01450;
  reactance 0.02850;
  shunt_resistance 169.49;
  shunt_reactance 33.44;
}
object transformer_configuration {
  name XF1_POLETOP_CN_15;
  power_rating 15.00;
  powerA_rating 0.0;
  powerB_rating 0.0;
  powerC_rating 15.00;
  install_type POLETOP;
  connect_type WYE_WYE;
  primary_voltage 12470.0;
  secondary_voltage 208.0;
  resistance 0.01900;
  reactance 0.01770;
  shunt_resistance 126.58;
  shunt_reactance 22.57;
}
object transformer_configuration {
  name XF3_POLETOP_ABCN_225;
  power_rating 225.00;
  powerA_rating 75.00;
  powerB_rating 75.00;
  powerC_rating 75.00;
  install_type POLETOP;
  connect_type WYE_WYE;
  primary_voltage 12470.0;
  secondary_voltage 480.0;
  resistance 0.01300;
  reactance 0.03520;
  shunt_resistance 200.00;
  shunt_reactance 40.00;
}
object transformer_configuration {
  name XF3_POLETOP_ABCN_750;
  power_rating 750.00;
  powerA_rating 250.00;
  powerB_rating 250.00;
  powerC_rating 250.00;
  install_type POLETOP;
  connect_type WYE_WYE;
  primary_voltage 12470.0;
  secondary_voltage 480.0;
  resistance 0.00970;
  reactance 0.05110;
  shunt_resistance 227.27;
  shunt_reactance 52.91;
}
object transformer_configuration {
  name XF1_POLETOP_CN_10;
  power_rating 10.00;
  powerA_rating 0.0;
  powerB_rating 0.0;
  powerC_rating 10.00;
  install_type POLETOP;
  connect_type WYE_WYE;
  primary_voltage 12470.0;
  secondary_voltage 208.0;
  resistance 0.01900;
  reactance 0.01770;
  shunt_resistance 126.58;
  shunt_reactance 22.57;
}
object transformer_configuration {
  name XF3_POLETOP_ABCN_300;
  power_rating 300.00;
  powerA_rating 100.00;
  powerB_rating 100.00;
  powerC_rating 100.00;
  install_type POLETOP;
  connect_type WYE_WYE;
  primary_voltage 12470.0;
  secondary_voltage 480.0;
  resistance 0.01300;
  reactance 0.04830;
  shunt_resistance 217.39;
  shunt_reactance 44.44;
}
object transformer_configuration {
  name XF3_POLETOP_ABCN_1000;
  power_rating 1000.00;
  powerA_rating 333.33;
  powerB_rating 333.33;
  powerC_rating 333.33;
  install_type POLETOP;
  connect_type WYE_WYE;
  primary_voltage 12470.0;
  secondary_voltage 480.0;
  resistance 0.00850;
  reactance 0.05690;
  shunt_resistance 232.56;
  shunt_reactance 60.61;
}
object transformer_configuration {
  name XF3_POLETOP_ABCN_500;
  power_rating 500.00;
  powerA_rating 166.67;
  powerB_rating 166.67;
  powerC_rating 166.67;
  install_type POLETOP;
  connect_type WYE_WYE;
  primary_voltage 12470.0;
  secondary_voltage 480.0;
  resistance 0.01100;
  reactance 0.04880;
  shunt_resistance 222.22;
  shunt_reactance 44.25;
}
object triplex_line_conductor {
  name triplex_4/0_aa;
  resistance 0.48;
  geometric_mean_radius 0.0158;
  rating.summer.continuous 1000.0;
  rating.summer.emergency 1000.0;
  rating.winter.continuous 1000.0;
  rating.winter.emergency 1000.0;
}
object triplex_line_configuration {
  name tpx_config;
  conductor_1 triplex_4/0_aa;
  conductor_2 triplex_4/0_aa;
  conductor_N triplex_4/0_aa;
  insulation_thickness 0.08;
  diameter 0.522;
}
object regulator_configuration {
  name feeder_reg_cfg;
  Control OUTPUT_VOLTAGE;
  band_center 7500.0;
  band_width 120;
  connect_type WYE_WYE;
  time_delay 30;
  raise_taps 16;
  lower_taps 16;
  regulation 0.10;
  tap_pos_A 0;
  tap_pos_B 0;
  tap_pos_C 0;
}
object overhead_line_conductor {
  name ID_537;
  rating.summer.continuous 256.0;
  geometric_mean_radius 0.01200 ft;
  resistance 0.16600;
}
object overhead_line_conductor {
  name ID_538;
  rating.summer.continuous 663.0;
  geometric_mean_radius 0.02710 ft;
  resistance 0.03690;
}
object overhead_line_conductor {
  name ID_539;
  rating.summer.continuous 180.0;
  geometric_mean_radius 0.00340 ft;
  resistance 0.28600;
}
object overhead_line_conductor {
  name ID_540;
  rating.summer.continuous 149.0;
  geometric_mean_radius 0.00663 ft;
  resistance 1.50000;
}
object overhead_line_conductor {
  name ID_541;
  rating.summer.continuous 266.0;
  geometric_mean_radius 0.01142 ft;
  resistance 0.95300;
}
object overhead_line_conductor {
  name ID_542;
  rating.summer.continuous 204.0;
  geometric_mean_radius 0.00836 ft;
  resistance 0.94500;
}
object overhead_line_conductor {
  name ID_543;
  rating.summer.continuous 460.0;
  geometric_mean_radius 0.02020 ft;
  resistance 0.06570;
}
object overhead_line_conductor {
  name ID_544;
  rating.summer.continuous 443.0;
  geometric_mean_radius 0.02270 ft;
  resistance 0.05230;
}
object overhead_line_conductor {
  name ID_545;
  rating.summer.continuous 605.0;
  geometric_mean_radius 0.02920 ft;
  resistance 0.03180;
}
object overhead_line_conductor {
  name ID_546;
  rating.summer.continuous 600.0;
  geometric_mean_radius 0.00801 ft;
  resistance 0.30590;
}
object line_spacing {
  name ID_52;
  distance_BN 36.0 in;
}
object line_spacing {
  name ID_53;
  distance_AB 48.0 in;
  distance_BC 48.0 in;
  distance_AC 48.0 in;
  distance_AN 36.0 in;
  distance_BN 36.0 in;
  distance_CN 36.0 in;
}
object line_spacing {
  name ID_54;
  distance_AN 36.0 in;
}
object line_spacing {
  name ID_55;
  distance_AB 48.0 in;
  distance_AN 36.0 in;
  distance_BN 36.0 in;
}
object line_spacing {
  name ID_56;
  distance_CN 36.0 in;
}
object line_configuration {
  name ID_24;
  conductor_B ID_537;
  conductor_N ID_537;
  spacing ID_52;
}
object line_configuration {
  name ID_25;
  conductor_A ID_538;
  conductor_B ID_538;
  conductor_C ID_538;
  conductor_N ID_538;
  spacing ID_53;
}
object line_configuration {
  name ID_26;
  conductor_A ID_537;
  conductor_B ID_537;
  conductor_C ID_537;
  conductor_N ID_537;
  spacing ID_53;
}
object line_configuration {
  name ID_27;
  conductor_A ID_537;
  conductor_N ID_537;
  spacing ID_54;
}
object line_configuration {
  name ID_28;
  conductor_B ID_539;
  conductor_N ID_539;
  spacing ID_52;
}
object line_configuration {
  name ID_29;
  conductor_B ID_540;
  conductor_N ID_540;
  spacing ID_52;
}
object line_configuration {
  name ID_30;
  conductor_A ID_538;
  conductor_N ID_538;
  spacing ID_54;
}
object line_configuration {
  name ID_31;
  conductor_A ID_538;
  conductor_B ID_538;
  conductor_N ID_538;
  spacing ID_55;
}
object line_configuration {
  name ID_32;
  conductor_A ID_538;
  conductor_N ID_538;
  spacing ID_54;
}
object line_configuration {
  name ID_33;
  conductor_A ID_540;
  conductor_B ID_540;
  conductor_C ID_540;
  conductor_N ID_540;
  spacing ID_53;
}
object line_configuration {
  name ID_34;
  conductor_B ID_541;
  conductor_N ID_541;
  spacing ID_52;
}
object line_configuration {
  name ID_35;
  conductor_A ID_538;
  conductor_B ID_538;
  conductor_C ID_538;
  conductor_N ID_538;
  spacing ID_53;
}
object line_configuration {
  name ID_36;
  conductor_C ID_542;
  conductor_N ID_542;
  spacing ID_56;
}
object line_configuration {
  name ID_37;
  conductor_A ID_541;
  conductor_B ID_541;
  conductor_C ID_541;
  conductor_N ID_541;
  spacing ID_53;
}
object line_configuration {
  name ID_38;
  conductor_A ID_543;
  conductor_B ID_543;
  conductor_C ID_543;
  conductor_N ID_543;
  spacing ID_53;
}
object line_configuration {
  name ID_39;
  conductor_A ID_544;
  conductor_B ID_544;
  conductor_C ID_544;
  conductor_N ID_544;
  spacing ID_53;
}
object line_configuration {
  name ID_40;
  conductor_A ID_538;
  conductor_B ID_538;
  conductor_C ID_538;
  conductor_N ID_538;
  spacing ID_53;
}
object line_configuration {
  name ID_41;
  conductor_C ID_786;
  conductor_N ID_786;
  spacing ID_56;
}
object line_configuration {
  name ID_42;
  conductor_A ID_786;
  conductor_B ID_786;
  conductor_C ID_786;
  conductor_N ID_786;
  spacing ID_53;
}
object line_configuration {
  name ID_43;
  conductor_A ID_786;
  conductor_N ID_786;
  spacing ID_54;
}
object line_configuration {
  name ID_44;
  conductor_A ID_787;
  conductor_B ID_787;
  conductor_C ID_787;
  conductor_N ID_787;
  spacing ID_53;
}
object line_configuration {
  name ID_45;
  conductor_A ID_788;
  conductor_B ID_788;
  conductor_C ID_788;
  conductor_N ID_788;
  spacing ID_53;
}
object line_configuration {
  name ID_46;
  conductor_A ID_789;
  conductor_B ID_789;
  conductor_C ID_789;
  conductor_N ID_789;
  spacing ID_53;
}
object line_configuration {
  name ID_47;
  conductor_B ID_786;
  conductor_N ID_786;
  spacing ID_52;
}
object line_configuration {
  name ID_48;
  conductor_C ID_787;
  conductor_N ID_787;
  spacing ID_56;
}
object line_configuration {
  name ID_49;
  conductor_A ID_545;
  conductor_B ID_545;
  conductor_C ID_545;
  conductor_N ID_545;
  spacing ID_53;
}
object line_configuration {
  name ID_50;
  conductor_B ID_545;
  conductor_N ID_545;
  spacing ID_52;
}
object line_configuration {
  name ID_51;
  conductor_A ID_790;
  conductor_B ID_790;
  conductor_C ID_790;
  conductor_N ID_790;
  spacing ID_53;
}
object triplex_line_conductor {
  name triplex_4/0 AA;
  resistance 0.48;
  geometric_mean_radius 0.0158;
  rating.summer.continuous 1000.0;
  rating.summer.emergency 1000.0;
  rating.winter.continuous 1000.0;
  rating.winter.emergency 1000.0;
}
object triplex_line_configuration {
  name ID_668;
  conductor_1 triplex_4/0 AA;
  conductor_2 triplex_4/0 AA;
  conductor_N triplex_4/0 AA;
  insulation_thickness 0.08;
  diameter 0.522;
}
object underground_line_conductor {
  name ID_786;
  rating.summer.continuous 142.0;
  outer_diameter 1.27;
  conductor_gmr 0.01142 ft;
  conductor_diameter 0.362;
  conductor_resistance 0.88704;
  neutral_gmr 0.00208 ft;
  neutral_resistance 14.87;
  neutral_diameter 0.0641;
  neutral_strands 16.0;
  insulation_relative_permitivitty 2.3;
}
object underground_line_conductor {
  name ID_787;
  rating.summer.continuous 112.0;
  outer_diameter 1.09;
  conductor_gmr 0.0088 ft;
  conductor_diameter 0.292;
  conductor_resistance 1.38336;
  neutral_gmr 0.00208 ft;
  neutral_resistance 14.87;
  neutral_diameter 0.0641;
  neutral_strands 6.0;
  insulation_relative_permitivitty 2.3;
}
object underground_line_conductor {
  name ID_788;
  rating.summer.continuous 214.0;
  outer_diameter 1.32;
  conductor_gmr 0.0177 ft;
  conductor_diameter 0.528;
  conductor_resistance 0.433488;
  neutral_gmr 0.00208 ft;
  neutral_resistance 14.87;
  neutral_diameter 0.0641;
  neutral_strands 11.0;
  insulation_relative_permitivitty 2.3;
}
object underground_line_conductor {
  name ID_789;
  rating.summer.continuous 775.0;
  outer_diameter 1.87;
  conductor_gmr 0.0371 ft;
  conductor_diameter 1.15;
  conductor_resistance 0.1162;
  shield_gmr 0.069167;
  shield_resistance 2.0135;
  shield_thickness 0.005;
  shield_diameter 1.66;
  insulation_relative_permitivitty 2.3;
}
object underground_line_conductor {
  name ID_790;
  rating.summer.continuous 425.0;
  outer_diameter 1.96;
  conductor_gmr 0.0321 ft;
  conductor_diameter 0.998;
  conductor_resistance 0.122496;
  neutral_gmr 0.00330 ft;
  neutral_resistance 5.9026;
  neutral_diameter 0.1019;
  neutral_strands 15.0;
  insulation_relative_permitivitty 2.3;
}
object fuse {
  name R3_12_47_2_fuse_1;
// downstream 131.11 kva on ABC
  phases ABCN;
  from R3_12_47_2_node_105;
  to R3_12_47_2_node_88;
  current_limit 40;
  status CLOSED;
  mean_replacement_time 3600;
}
object fuse {
  name R3_12_47_2_fuse_2;
// downstream 131.11 kva on ABC
  phases ABCN;
  from R3_12_47_2_node_88;
  to R3_12_47_2_node_87;
  current_limit 40;
  status CLOSED;
  mean_replacement_time 3600;
}
object fuse {
  name R3_12_47_2_fuse_3;
// downstream 22.82 kva on B
  phases BN;
  from R3_12_47_2_node_196;
  to R3_12_47_2_node_90;
  current_limit 40;
  status CLOSED;
  mean_replacement_time 3600;
}
object fuse {
  name R3_12_47_2_fuse_4;
// downstream 131.11 kva on ABC
  phases ABCN;
  from R3_12_47_2_node_201;
  to R3_12_47_2_node_81;
  current_limit 40;
  status CLOSED;
  mean_replacement_time 3600;
}
object fuse {
  name R3_12_47_2_fuse_5;
// downstream 131.11 kva on ABC
  phases ABCN;
  from R3_12_47_2_node_202;
  to R3_12_47_2_node_82;
  current_limit 40;
  status CLOSED;
  mean_replacement_time 3600;
}
object fuse {
  name R3_12_47_2_fuse_6;
// downstream 264.36 kva on ABC
  phases ABCN;
  from R3_12_47_2_node_227;
  to R3_12_47_2_node_84;
  current_limit 40;
  status CLOSED;
  mean_replacement_time 3600;
}
object fuse {
  name R3_12_47_2_fuse_7;
// downstream 6.71 kva on B
  phases BN;
  from R3_12_47_2_node_217;
  to R3_12_47_2_node_95;
  current_limit 40;
  status CLOSED;
  mean_replacement_time 3600;
}
object fuse {
  name R3_12_47_2_fuse_8;
// downstream 19.71 kva on ABC
  phases ABCN;
  from R3_12_47_2_node_198;
  to R3_12_47_2_node_91;
  current_limit 40;
  status CLOSED;
  mean_replacement_time 3600;
}
object fuse {
  name R3_12_47_2_fuse_9;
// downstream 229.40 kva on ABC
  phases ABCN;
  from R3_12_47_2_node_198;
  to R3_12_47_2_node_83;
  current_limit 40;
  status CLOSED;
  mean_replacement_time 3600;
}
object fuse {
  name R3_12_47_2_fuse_10;
// downstream 317.85 kva on ABC
  phases ABCN;
  from R3_12_47_2_node_209;
  to R3_12_47_2_node_85;
  current_limit 40;
  status CLOSED;
  mean_replacement_time 3600;
}
object fuse {
  name R3_12_47_2_fuse_11;
// downstream 317.85 kva on ABC
  phases ABCN;
  from R3_12_47_2_node_211;
  to R3_12_47_2_node_93;
  current_limit 40;
  status CLOSED;
  mean_replacement_time 3600;
}
object fuse {
  name R3_12_47_2_fuse_12;
// downstream 65.56 kva on ABC
  phases ABCN;
  from R3_12_47_2_node_184;
  to R3_12_47_2_node_89;
  current_limit 40;
  status CLOSED;
  mean_replacement_time 3600;
}
object fuse {
  name R3_12_47_2_fuse_13;
// downstream 161.66 kva on ABC
  phases ABCN;
  from R3_12_47_2_node_210;
  to R3_12_47_2_node_92;
  current_limit 40;
  status CLOSED;
  mean_replacement_time 3600;
}
object fuse {
  name R3_12_47_2_fuse_14;
// downstream 393.07 kva on ABC
  phases ABCN;
  from R3_12_47_2_node_213;
  to R3_12_47_2_node_94;
  current_limit 65;
  status CLOSED;
  mean_replacement_time 3600;
}
object fuse {
  name R3_12_47_2_fuse_15;
// downstream 89.58 kva on ABC
  phases ABCN;
  from R3_12_47_2_node_215;
  to R3_12_47_2_node_86;
  current_limit 40;
  status CLOSED;
  mean_replacement_time 3600;
}
object fuse {
  name R3_12_47_2_fuse_16;
// downstream 11.19 kva on B
  phases BN;
  from R3_12_47_2_node_115;
  to R3_12_47_2_node_80;
  current_limit 40;
  status CLOSED;
  mean_replacement_time 3600;
}
object fuse {
  name R3_12_47_2_fuse_17;
// downstream 3784.58 kva on ABC
  phases ABCN;
  from R3_12_47_2_node_128;
  to R3_12_47_2_node_73;
  current_limit 560;
  status CLOSED;
  mean_replacement_time 3600;
}
object fuse {
  name R3_12_47_2_fuse_18;
// downstream 436.60 kva on ABC
  phases ABCN;
  from R3_12_47_2_node_3;
  to R3_12_47_2_node_78;
  current_limit 65;
  status CLOSED;
  mean_replacement_time 3600;
}
object fuse {
  name R3_12_47_2_fuse_19;
// downstream 65.56 kva on ABC
  phases ABCN;
  from R3_12_47_2_node_2;
  to R3_12_47_2_node_79;
  current_limit 40;
  status CLOSED;
  mean_replacement_time 3600;
}
object fuse {
  name R3_12_47_2_fuse_20;
// downstream 4280.38 kva on ABC
  phases ABCN;
  from R3_12_47_2_node_6;
  to R3_12_47_2_node_72;
  current_limit 560;
  status CLOSED;
  mean_replacement_time 3600;
}
object fuse {
  name R3_12_47_2_fuse_21;
// downstream 275.58 kva on ABC
  phases ABCN;
  from R3_12_47_2_node_8;
  to R3_12_47_2_node_76;
  current_limit 40;
  status CLOSED;
  mean_replacement_time 3600;
}
object switch {
  name R3_12_47_2_switch_1;
  phases ABCN;
  from R3_12_47_2_node_186;
  to R3_12_47_2_node_263;
  status CLOSED;
}
object switch {
  name R3_12_47_2_switch_2;
// downstream 3701.89 kva on ABC
  phases ABCN;
  from R3_12_47_2_node_188;
  to R3_12_47_2_node_252;
  status CLOSED;
}
object switch {
  name R3_12_47_2_switch_3;
  phases ABCN;
  from R3_12_47_2_node_189;
  to R3_12_47_2_node_260;
  status CLOSED;
}
object switch {
  name R3_12_47_2_switch_4;
// downstream 3701.89 kva on ABC
  phases ABCN;
  from R3_12_47_2_node_223;
  to R3_12_47_2_node_261;
  status CLOSED;
}
object switch {
  name R3_12_47_2_switch_5;
// downstream 3525.15 kva on ABC
  phases ABCN;
  from R3_12_47_2_node_195;
  to R3_12_47_2_node_256;
  status CLOSED;
}
object switch {
  name R3_12_47_2_switch_6;
  phases ABCN;
  from R3_12_47_2_node_189;
  to R3_12_47_2_node_229;
  status CLOSED;
}
object switch {
  name R3_12_47_2_switch_7;
// downstream 655.55 kva on ABC
  phases ABCN;
  from R3_12_47_2_node_220;
  to R3_12_47_2_node_254;
  status CLOSED;
}
object switch {
  name R3_12_47_2_switch_8;
  phases ABCN;
  from R3_12_47_2_node_222;
  to R3_12_47_2_node_228;
  status CLOSED;
}
object switch {
  name R3_12_47_2_switch_9;
// downstream 3784.58 kva on ABC
  phases ABCN;
  from R3_12_47_2_node_164;
  to R3_12_47_2_node_249;
  status CLOSED;
}
object switch {
  name R3_12_47_2_switch_10;
  phases ABCN;
  from R3_12_47_2_node_162;
  to R3_12_47_2_node_262;
  status CLOSED;
}
object switch {
  name R3_12_47_2_switch_11;
  phases ABCN;
  from R3_12_47_2_node_208;
  to R3_12_47_2_node_251;
  status CLOSED;
}
object switch {
  name R3_12_47_2_switch_12;
// downstream 4555.97 kva on ABC
  phases ABCN;
  from R3_12_47_2_node_1;
  to R3_12_47_2_node_253;
  status CLOSED;
}
object switch {
  name R3_12_47_2_switch_13;
  phases ABCN;
  from R3_12_47_2_node_181;
  to R3_12_47_2_node_255;
  status CLOSED;
}
object switch {
  name R3_12_47_2_switch_14;
// downstream 4555.97 kva on ABC
  phases ABCN;
  from R3_12_47_2_node_182;
  to R3_12_47_2_node_259;
  status CLOSED;
}
object switch {
  name R3_12_47_2_switch_15;
// downstream 3719.02 kva on ABC
  phases ABCN;
  from R3_12_47_2_node_185;
  to R3_12_47_2_node_250;
  status CLOSED;
}
object switch {
  name R3_12_47_2_switch_16;
// downstream 4555.97 kva on ABC
  phases ABCN;
  from R3_12_47_2_node_163;
  to R3_12_47_2_node_231;
  status CLOSED;
}
object switch {
  name R3_12_47_2_switch_17;
  phases ABCN;
  from R3_12_47_2_node_242;
  to R3_12_47_2_node_264;
  status CLOSED;
}
object switch {
  name R3_12_47_2_switch_18;
// downstream 4280.38 kva on ABC
  phases ABCN;
  from R3_12_47_2_node_177;
  to R3_12_47_2_node_240;
  status CLOSED;
}
object switch {
  name R3_12_47_2_switch_19;
// downstream 4280.38 kva on ABC
  phases ABCN;
  from R3_12_47_2_node_176;
  to R3_12_47_2_node_236;
  status CLOSED;
}
object switch {
  name R3_12_47_2_switch_20;
  phases ABCN;
  from R3_12_47_2_node_221;
  to R3_12_47_2_node_230;
  status CLOSED;
}
object switch {
  name R3_12_47_2_switch_21;
// downstream 4555.97 kva on ABC
  phases ABCN;
  from R3_12_47_2_node_232;
  to R3_12_47_2_node_244;
  status CLOSED;
}
object switch {
  name R3_12_47_2_switch_22;
  phases ABCN;
  from R3_12_47_2_node_118;
  to R3_12_47_2_node_257;
  status CLOSED;
}
object switch {
  name R3_12_47_2_switch_23;
  phases ABCN;
  from R3_12_47_2_node_126;
  to R3_12_47_2_node_258;
  status CLOSED;
}
object switch {
  name R3_12_47_2_switch_24;
// downstream 4280.38 kva on ABC
  phases ABCN;
  from R3_12_47_2_node_136;
  to R3_12_47_2_node_245;
  status CLOSED;
}
object switch {
  name R3_12_47_2_switch_25;
  phases ABCN;
  from R3_12_47_2_node_247;
  to R3_12_47_2_node_266;
  status CLOSED;
}
object switch {
  name R3_12_47_2_switch_26;
// downstream 89.58 kva on ABC
  phases ABCN;
  from R3_12_47_2_node_97;
  to R3_12_47_2_node_246;
  status CLOSED;
}
object switch {
  name R3_12_47_2_switch_27;
  phases ABCN;
  from R3_12_47_2_node_151;
  to R3_12_47_2_node_248;
  status CLOSED;
}
object switch {
  name R3_12_47_2_switch_28;
  phases ABCN;
  from R3_12_47_2_node_4;
  to R3_12_47_2_node_234;
  status CLOSED;
}
object switch {
  name R3_12_47_2_switch_29;
// downstream 4555.97 kva on ABC
  phases ABCN;
  from R3_12_47_2_node_4;
  to R3_12_47_2_node_232;
  status CLOSED;
}
object switch {
  name R3_12_47_2_switch_30;
  phases ABCN;
  from R3_12_47_2_node_5;
  to R3_12_47_2_node_238;
  status CLOSED;
}
object switch {
  name R3_12_47_2_switch_31;
  phases ABCN;
  from R3_12_47_2_node_5;
  to R3_12_47_2_node_235;
  status CLOSED;
}
object switch {
  name R3_12_47_2_switch_32;
// downstream 4280.38 kva on ABC
  phases ABCN;
  from R3_12_47_2_node_5;
  to R3_12_47_2_node_237;
  status CLOSED;
}
object switch {
  name R3_12_47_2_switch_33;
  phases ABCN;
  from R3_12_47_2_node_6;
  to R3_12_47_2_node_239;
  status CLOSED;
}
object switch {
  name R3_12_47_2_switch_34;
// downstream 3784.58 kva on ABC
  phases ABCN;
  from R3_12_47_2_node_7;
  to R3_12_47_2_node_241;
  status CLOSED;
}
object switch {
  name R3_12_47_2_switch_35;
// downstream 4280.38 kva on ABC
  phases ABCN;
  from R3_12_47_2_node_8;
  to R3_12_47_2_node_243;
  status CLOSED;
}
object switch {
  name R3_12_47_2_switch_36;
  phases ABCN;
  from R3_12_47_2_node_4;
  to R3_12_47_2_node_233;
  status CLOSED;
}
object recloser {
  name R3_12_47_2_recloser_1;
// downstream 906.41 kva on ABC
  phases ABCN;
  from R3_12_47_2_node_219;
  to R3_12_47_2_node_74;
  status CLOSED;
  operating_mode INDIVIDUAL;
  phase_A_state CLOSED;
  phase_B_state CLOSED;
  phase_C_state CLOSED;
  retry_time 1.0 s;
  max_number_of_tries 3;
  number_of_tries 0;
}
object recloser {
  name R3_12_47_2_recloser_2;
// downstream 874.07 kva on ABC
  phases ABCN;
  from R3_12_47_2_node_220;
  to R3_12_47_2_node_77;
  status CLOSED;
  operating_mode INDIVIDUAL;
  phase_A_state CLOSED;
  phase_B_state CLOSED;
  phase_C_state CLOSED;
  retry_time 1.0 s;
  max_number_of_tries 3;
  number_of_tries 0;
}
object recloser {
  name R3_12_47_2_recloser_3;
// downstream 655.55 kva on ABC
  phases ABCN;
  from R3_12_47_2_node_222;
  to R3_12_47_2_node_75;
  status CLOSED;
  operating_mode INDIVIDUAL;
  phase_A_state CLOSED;
  phase_B_state CLOSED;
  phase_C_state CLOSED;
  retry_time 1.0 s;
  max_number_of_tries 3;
  number_of_tries 0;
}
object overhead_line {
  name R3_12_47_2_ol_1;
// downstream 6.71 kva on B
  phases BN;
  from R3_12_47_2_node_103;
  to R3_12_47_2_node_71;
  length 25.994;
  configuration ID_24;
}
object overhead_line {
  name R3_12_47_2_ol_2;
// downstream 11.63 kva on B
  phases BN;
  from R3_12_47_2_node_103;
  to R3_12_47_2_node_166;
  length 285.282;
  configuration ID_24;
}
object overhead_line {
  name R3_12_47_2_ol_3;
// downstream 18.35 kva on B
  phases BN;
  from R3_12_47_2_node_194;
  to R3_12_47_2_node_103;
  length 937.674;
  configuration ID_24;
}
object overhead_line {
  name R3_12_47_2_ol_4;
// downstream 3701.89 kva on ABC
  phases ABCN;
  from R3_12_47_2_node_261;
  to R3_12_47_2_node_105;
  length 38.064;
  configuration ID_25;
}
object overhead_line {
  name R3_12_47_2_ol_5;
// downstream 3570.78 kva on ABC
  phases ABCN;
  from R3_12_47_2_node_105;
  to R3_12_47_2_node_191;
  length 120.922;
  configuration ID_25;
}
object overhead_line {
  name R3_12_47_2_ol_6;
// downstream 131.11 kva on ABC
  phases ABCN;
  from R3_12_47_2_node_87;
  to R3_12_47_2_node_106;
  length 16.468;
  configuration ID_26;
}
object overhead_line {
  name R3_12_47_2_ol_7;
// downstream 6.42 kva on A
  phases AN;
  from R3_12_47_2_node_187;
  to R3_12_47_2_node_50;
  length 42.258;
  configuration ID_27;
}
object overhead_line {
  name R3_12_47_2_ol_8;
// downstream 10.71 kva on A
  phases AN;
  from R3_12_47_2_node_188;
  to R3_12_47_2_node_52;
  length 36.973;
  configuration ID_27;
}
object overhead_line {
  name R3_12_47_2_ol_9;
  phases BN;
  from R3_12_47_2_node_109;
  to R3_12_47_2_node_104;
  length 153.784;
  configuration ID_28;
}
object overhead_line {
  name R3_12_47_2_ol_10;
// downstream 0.45 kva on B
  phases BN;
  from R3_12_47_2_node_190;
  to R3_12_47_2_node_109;
  length 558.400;
  configuration ID_28;
}
object overhead_line {
  name R3_12_47_2_ol_11;
// downstream 0.45 kva on B
  phases BN;
  from R3_12_47_2_node_109;
  to R3_12_47_2_node_12;
  length 20.258;
  configuration ID_29;
}
object overhead_line {
  name R3_12_47_2_ol_12;
// downstream 11.19 kva on B
  phases BN;
  from R3_12_47_2_node_190;
  to R3_12_47_2_node_39;
  length 37.479;
  configuration ID_28;
}
object overhead_line {
  name R3_12_47_2_ol_13;
// downstream 11.63 kva on B
  phases BN;
  from R3_12_47_2_node_166;
  to R3_12_47_2_node_190;
  length 360.665;
  configuration ID_28;
}
object overhead_line {
  name R3_12_47_2_ol_14;
// downstream 6.42 kva on A
  phases AN;
  from R3_12_47_2_node_191;
  to R3_12_47_2_node_40;
  length 30.421;
  configuration ID_30;
}
object overhead_line {
  name R3_12_47_2_ol_15;
// downstream 6.42 kva on A
  phases AN;
  from R3_12_47_2_node_193;
  to R3_12_47_2_node_53;
  length 27.536;
  configuration ID_30;
}
object overhead_line {
  name R3_12_47_2_ol_16;
// downstream 4.47 kva on B
  phases BN;
  from R3_12_47_2_node_194;
  to R3_12_47_2_node_54;
  length 39.715;
  configuration ID_24;
}
object overhead_line {
  name R3_12_47_2_ol_17;
// downstream 32.78 kva on ABC
  phases ABCN;
  from R3_12_47_2_node_195;
  to R3_12_47_2_node_55;
  length 26.074;
  configuration ID_25;
}
object overhead_line {
  name R3_12_47_2_ol_18;
// downstream 22.82 kva on B
  phases BN;
  from R3_12_47_2_node_90;