clock {
     timezone EST+5EDT;
  timestamp '2010-06-01 00:00:00';
  stoptime '2010-06-03 00:00:00';
}
#set profiler=1
module tape;
module powerflow{
     solver_method NR;
      default_maximum_voltage_error 1e-6;
};
#ifdef WANT_VI_DUMP
#endif
module climate;
module generators;
module connection;
module residential {
  implicit_enduses NONE;
};
#include "../../../../support/schedules/appliance_schedules.glm";
#include "../../../../support/schedules/water_and_setpoint_schedule_v5.glm";
#include "../../../../support/schedules/commercial_schedules.glm";
#set minimum_timestep=15;
#set relax_naming_rules=1;
#set warn=0;
object metrics_collector_writer {
  interval 300;
  interim 43200;
  filename ${METRICS_FILE};
  // filename R4-25.00-1_processed_metrics.json;
};
object climate {
  name localWeather;
  // tmyfile "../../../../support/weather/AZ-Tucson_International_Ap.tmy3";
  // agent name weather
  interpolate QUADRATIC;
  latitude 30.0;
  longitude -110.0;
  // altitude 0.0;
  tz_meridian 0.0;
};
// default IEEE 1547-2018 settings for Category B
#define INV_VBASE=240.0
#define INV_V1=0.92
#define INV_V2=0.98
#define INV_V3=1.02
#define INV_V4=1.08
#define INV_Q1=0.44
#define INV_Q2=0.00
#define INV_Q3=0.00
#define INV_Q4=-0.44
#define INV_VIN=200.0
#define INV_IIN=32.5
#define INV_VVLOCKOUT=300.0
#define INV_VW_V1=1.05 // 1.05833
#define INV_VW_V2=1.10
#define INV_VW_P1=1.0
#define INV_VW_P2=0.0
#ifdef WANT_VI_DUMP
object voltdump {
  filename Voltage_Dump_R4-25.00-1_processed.csv;
  mode polar;
}
object currdump {
  filename Current_Dump_R4-25.00-1_processed.csv;
  mode polar;
}
#endif // &&& end of common section for combining TESP cases
// solar inverter mode on this feeder
#define INVERTER_MODE=CONSTANT_PF
object transformer_configuration {
  name XF1_POLETOP_BS_10;
  power_rating 10.00;
  powerA_rating 0.0;
  powerB_rating 10.00;
  powerC_rating 0.0;
  install_type POLETOP;
  connect_type SINGLE_PHASE_CENTER_TAPPED;
  primary_voltage 14400.0;
  secondary_voltage 120.0;
  resistance 0.00950;
  resistance1 0.01900;
  resistance2 0.01900;
  reactance 0.01040;
  reactance1 0.00520;
  reactance2 0.00520;
  shunt_resistance 147.06;
  shunt_reactance 34.25;
}
object transformer_configuration {
  name XF1_POLETOP_CS_15;
  power_rating 15.00;
  powerA_rating 0.0;
  powerB_rating 0.0;
  powerC_rating 15.00;
  install_type POLETOP;
  connect_type SINGLE_PHASE_CENTER_TAPPED;
  primary_voltage 14400.0;
  secondary_voltage 120.0;
  resistance 0.00850;
  resistance1 0.01700;
  resistance2 0.01700;
  reactance 0.01176;
  reactance1 0.00588;
  reactance2 0.00588;
  shunt_resistance 166.67;
  shunt_reactance 39.53;
}
object transformer_configuration {
  name XF1_POLETOP_CS_5;
  power_rating 5.00;
  powerA_rating 0.0;
  powerB_rating 0.0;
  powerC_rating 5.00;
  install_type POLETOP;
  connect_type SINGLE_PHASE_CENTER_TAPPED;
  primary_voltage 14400.0;
  secondary_voltage 120.0;
  resistance 0.01050;
  resistance1 0.02100;
  resistance2 0.02100;
  reactance 0.01224;
  reactance1 0.00612;
  reactance2 0.00612;
  shunt_resistance 111.11;
  shunt_reactance 29.59;
}
object transformer_configuration {
  name XF1_POLETOP_CS_10;
  power_rating 10.00;
  powerA_rating 0.0;
  powerB_rating 0.0;
  powerC_rating 10.00;
  install_type POLETOP;
  connect_type SINGLE_PHASE_CENTER_TAPPED;
  primary_voltage 14400.0;
  secondary_voltage 120.0;
  resistance 0.00950;
  resistance1 0.01900;
  resistance2 0.01900;
  reactance 0.01040;
  reactance1 0.00520;
  reactance2 0.00520;
  shunt_resistance 147.06;
  shunt_reactance 34.25;
}
object transformer_configuration {
  name XF1_POLETOP_CS_25;
  power_rating 25.00;
  powerA_rating 0.0;
  powerB_rating 0.0;
  powerC_rating 25.00;
  install_type POLETOP;
  connect_type SINGLE_PHASE_CENTER_TAPPED;
  primary_voltage 14400.0;
  secondary_voltage 120.0;
  resistance 0.00800;
  resistance1 0.01600;
  resistance2 0.01600;
  reactance 0.01208;
  reactance1 0.00604;
  reactance2 0.00604;
  shunt_resistance 192.31;
  shunt_reactance 51.81;
}
object transformer_configuration {
  name XF1_POLETOP_BS_15;
  power_rating 15.00;
  powerA_rating 0.0;
  powerB_rating 15.00;
  powerC_rating 0.0;
  install_type POLETOP;
  connect_type SINGLE_PHASE_CENTER_TAPPED;
  primary_voltage 14400.0;
  secondary_voltage 120.0;
  resistance 0.00850;
  resistance1 0.01700;
  resistance2 0.01700;
  reactance 0.01176;
  reactance1 0.00588;
  reactance2 0.00588;
  shunt_resistance 166.67;
  shunt_reactance 39.53;
}
object transformer_configuration {
  name XF1_POLETOP_BS_25;
  power_rating 25.00;
  powerA_rating 0.0;
  powerB_rating 25.00;
  powerC_rating 0.0;
  install_type POLETOP;
  connect_type SINGLE_PHASE_CENTER_TAPPED;
  primary_voltage 14400.0;
  secondary_voltage 120.0;
  resistance 0.00800;
  resistance1 0.01600;
  resistance2 0.01600;
  reactance 0.01208;
  reactance1 0.00604;
  reactance2 0.00604;
  shunt_resistance 192.31;
  shunt_reactance 51.81;
}
object transformer_configuration {
  name XF1_POLETOP_BS_5;
  power_rating 5.00;
  powerA_rating 0.0;
  powerB_rating 5.00;
  powerC_rating 0.0;
  install_type POLETOP;
  connect_type SINGLE_PHASE_CENTER_TAPPED;
  primary_voltage 14400.0;
  secondary_voltage 120.0;
  resistance 0.01050;
  resistance1 0.02100;
  resistance2 0.02100;
  reactance 0.01224;
  reactance1 0.00612;
  reactance2 0.00612;
  shunt_resistance 111.11;
  shunt_reactance 29.59;
}
object transformer_configuration {
  name XF1_POLETOP_AS_5;
  power_rating 5.00;
  powerA_rating 5.00;
  powerB_rating 0.0;
  powerC_rating 0.0;
  install_type POLETOP;
  connect_type SINGLE_PHASE_CENTER_TAPPED;
  primary_voltage 14400.0;
  secondary_voltage 120.0;
  resistance 0.01050;
  resistance1 0.02100;
  resistance2 0.02100;
  reactance 0.01224;
  reactance1 0.00612;
  reactance2 0.00612;
  shunt_resistance 111.11;
  shunt_reactance 29.59;
}
object transformer_configuration {
  name XF1_POLETOP_BS_37p5;
  power_rating 37.50;
  powerA_rating 0.0;
  powerB_rating 37.50;
  powerC_rating 0.0;
  install_type POLETOP;
  connect_type SINGLE_PHASE_CENTER_TAPPED;
  primary_voltage 14400.0;
  secondary_voltage 120.0;
  resistance 0.00725;
  resistance1 0.01450;
  resistance2 0.01450;
  reactance 0.01320;
  reactance1 0.00660;
  reactance2 0.00660;
  shunt_resistance 212.77;
  shunt_reactance 57.47;
}
object transformer_configuration {
  name XF1_POLETOP_AS_10;
  power_rating 10.00;
  powerA_rating 10.00;
  powerB_rating 0.0;
  powerC_rating 0.0;
  install_type POLETOP;
  connect_type SINGLE_PHASE_CENTER_TAPPED;
  primary_voltage 14400.0;
  secondary_voltage 120.0;
  resistance 0.00950;
  resistance1 0.01900;
  resistance2 0.01900;
  reactance 0.01040;
  reactance1 0.00520;
  reactance2 0.00520;
  shunt_resistance 147.06;
  shunt_reactance 34.25;
}
object transformer_configuration {
  name XF1_POLETOP_AS_25;
  power_rating 25.00;
  powerA_rating 25.00;
  powerB_rating 0.0;
  powerC_rating 0.0;
  install_type POLETOP;
  connect_type SINGLE_PHASE_CENTER_TAPPED;
  primary_voltage 14400.0;
  secondary_voltage 120.0;
  resistance 0.00800;
  resistance1 0.01600;
  resistance2 0.01600;
  reactance 0.01208;
  reactance1 0.00604;
  reactance2 0.00604;
  shunt_resistance 192.31;
  shunt_reactance 51.81;
}
object transformer_configuration {
  name XF1_POLETOP_CS_37p5;
  power_rating 37.50;
  powerA_rating 0.0;
  powerB_rating 0.0;
  powerC_rating 37.50;
  install_type POLETOP;
  connect_type SINGLE_PHASE_CENTER_TAPPED;
  primary_voltage 14400.0;
  secondary_voltage 120.0;
  resistance 0.00725;
  resistance1 0.01450;
  resistance2 0.01450;
  reactance 0.01320;
  reactance1 0.00660;
  reactance2 0.00660;
  shunt_resistance 212.77;
  shunt_reactance 57.47;
}
object transformer_configuration {
  name XF1_PADMOUNT_BS_5;
  power_rating 5.00;
  powerA_rating 0.0;
  powerB_rating 5.00;
  powerC_rating 0.0;
  install_type PADMOUNT;
  connect_type SINGLE_PHASE_CENTER_TAPPED;
  primary_voltage 14400.0;
  secondary_voltage 120.0;
  resistance 0.01050;
  resistance1 0.02100;
  resistance2 0.02100;
  reactance 0.01224;
  reactance1 0.00612;
  reactance2 0.00612;
  shunt_resistance 111.11;
  shunt_reactance 29.59;
}
object transformer_configuration {
  name XF1_PADMOUNT_BS_10;
  power_rating 10.00;
  powerA_rating 0.0;
  powerB_rating 10.00;
  powerC_rating 0.0;
  install_type PADMOUNT;
  connect_type SINGLE_PHASE_CENTER_TAPPED;
  primary_voltage 14400.0;
  secondary_voltage 120.0;
  resistance 0.00950;
  resistance1 0.01900;
  resistance2 0.01900;
  reactance 0.01040;
  reactance1 0.00520;
  reactance2 0.00520;
  shunt_resistance 147.06;
  shunt_reactance 34.25;
}
object transformer_configuration {
  name XF1_PADMOUNT_BS_15;
  power_rating 15.00;
  powerA_rating 0.0;
  powerB_rating 15.00;
  powerC_rating 0.0;
  install_type PADMOUNT;
  connect_type SINGLE_PHASE_CENTER_TAPPED;
  primary_voltage 14400.0;
  secondary_voltage 120.0;
  resistance 0.00850;
  resistance1 0.01700;
  resistance2 0.01700;
  reactance 0.01176;
  reactance1 0.00588;
  reactance2 0.00588;
  shunt_resistance 166.67;
  shunt_reactance 39.53;
}
object transformer_configuration {
  name XF1_PADMOUNT_AS_25;
  power_rating 25.00;
  powerA_rating 25.00;
  powerB_rating 0.0;
  powerC_rating 0.0;
  install_type PADMOUNT;
  connect_type SINGLE_PHASE_CENTER_TAPPED;
  primary_voltage 14400.0;
  secondary_voltage 120.0;
  resistance 0.00800;
  resistance1 0.01600;
  resistance2 0.01600;
  reactance 0.01208;
  reactance1 0.00604;
  reactance2 0.00604;
  shunt_resistance 192.31;
  shunt_reactance 51.81;
}
object transformer_configuration {
  name XF1_PADMOUNT_AS_10;
  power_rating 10.00;
  powerA_rating 10.00;
  powerB_rating 0.0;
  powerC_rating 0.0;
  install_type PADMOUNT;
  connect_type SINGLE_PHASE_CENTER_TAPPED;
  primary_voltage 14400.0;
  secondary_voltage 120.0;
  resistance 0.00950;
  resistance1 0.01900;
  resistance2 0.01900;
  reactance 0.01040;
  reactance1 0.00520;
  reactance2 0.00520;
  shunt_resistance 147.06;
  shunt_reactance 34.25;
}
object transformer_configuration {
  name XF2_POLETOP_ACN_30;
  power_rating 30.00;
  powerA_rating 15.00;
  powerB_rating 0.0;
  powerC_rating 15.00;
  install_type POLETOP;
  connect_type WYE_WYE;
  primary_voltage 24900.0;
  secondary_voltage 208.0;
  resistance 0.01900;
  reactance 0.01770;
  shunt_resistance 126.58;
  shunt_reactance 22.57;
}
object triplex_line_conductor {
  name triplex_4/0_aa;
  resistance 0.48;
  geometric_mean_radius 0.0158;
  rating.summer.continuous 1000.0;
  rating.summer.emergency 1000.0;
  rating.winter.continuous 1000.0;
  rating.winter.emergency 1000.0;
}
object triplex_line_configuration {
  name tpx_config;
  conductor_1 triplex_4/0_aa;
  conductor_2 triplex_4/0_aa;
  conductor_N triplex_4/0_aa;
  insulation_thickness 0.08;
  diameter 0.522;
}
object regulator_configuration {
  name feeder_reg_cfg;
  Control OUTPUT_VOLTAGE;
  band_center 14975.0;
  band_width 240;
  connect_type WYE_WYE;
  time_delay 30;
  raise_taps 16;
  lower_taps 16;
  regulation 0.10;
  tap_pos_A 0;
  tap_pos_B 0;
  tap_pos_C 0;
}
object overhead_line_conductor {
  name ID_461;
  rating.summer.continuous 204.0;
  geometric_mean_radius 0.00836 ft;
  resistance 0.94500;
}
object overhead_line_conductor {
  name ID_462;
  rating.summer.continuous 530.0;
  geometric_mean_radius 0.02300 ft;
  resistance 0.30300;
}
object overhead_line_conductor {
  name ID_463;
  rating.summer.continuous 149.0;
  geometric_mean_radius 0.00663 ft;
  resistance 1.50000;
}
object overhead_line_conductor {
  name ID_464;
  rating.summer.continuous 256.0;
  geometric_mean_radius 0.01200 ft;
  resistance 0.16600;
}
object overhead_line_conductor {
  name ID_465;
  rating.summer.continuous 300.0;
  geometric_mean_radius 0.00600 ft;
  resistance 0.63800;
}
object line_spacing {
  name ID_44;
  distance_BN 48.0 in;
}
object line_spacing {
  name ID_45;
  distance_CN 48.0 in;
}
object line_spacing {
  name ID_46;
  distance_AB 57.6 in;
  distance_BC 57.6 in;
  distance_AC 57.6 in;
  distance_AN 48.0 in;
  distance_BN 48.0 in;
  distance_CN 48.0 in;
}
object line_spacing {
  name ID_47;
  distance_AN 48.0 in;
}
object line_spacing {
  name ID_48;
  distance_AC 51.6 in;
  distance_AN 48.0 in;
  distance_CN 48.0 in;
}
object line_spacing {
  name ID_49;
  distance_CN 0.0 in;
}
object line_spacing {
  name ID_50;
  distance_AN 0.0 in;
}
object line_spacing {
  name ID_51;
  distance_AB 48.0 in;
  distance_BC 48.0 in;
  distance_AC 48.0 in;
  distance_AN 48.0 in;
  distance_BN 48.0 in;
  distance_CN 48.0 in;
}
object line_configuration {
  name ID_31;
  conductor_B ID_461;
  conductor_N ID_461;
  spacing ID_44;
}
object line_configuration {
  name ID_32;
  conductor_C ID_461;
  conductor_N ID_461;
  spacing ID_45;
}
object line_configuration {
  name ID_33;
  conductor_A ID_462;
  conductor_B ID_462;
  conductor_C ID_462;
  conductor_N ID_462;
  spacing ID_46;
}
object line_configuration {
  name ID_34;
  conductor_B ID_463;
  conductor_N ID_463;
  spacing ID_44;
}
object line_configuration {
  name ID_35;
  conductor_A ID_461;
  conductor_N ID_461;
  spacing ID_47;
}
object line_configuration {
  name ID_36;
  conductor_C ID_464;
  conductor_N ID_464;
  spacing ID_45;
}
object line_configuration {
  name ID_37;
  conductor_C ID_464;
  conductor_N ID_464;
  spacing ID_45;
}
object line_configuration {
  name ID_38;
  conductor_A ID_461;
  conductor_C ID_461;
  conductor_N ID_461;
  spacing ID_48;
}
object line_configuration {
  name ID_39;
  conductor_C ID_1214;
  conductor_N ID_1214;
  spacing ID_49;
}
object line_configuration {
  name ID_40;
  conductor_C ID_1214;
  conductor_N ID_1214;
  spacing ID_45;
}
object line_configuration {
  name ID_41;
  conductor_A ID_1214;
  conductor_N ID_1214;
  spacing ID_50;
}
object line_configuration {
  name ID_42;
  conductor_A ID_463;
  conductor_N ID_463;
  spacing ID_47;
}
object line_configuration {
  name ID_43;
  conductor_A ID_462;
  conductor_B ID_462;
  conductor_C ID_462;
  conductor_N ID_462;
  spacing ID_51;
}
object triplex_line_conductor {
  name triplex_4/0 AA;
  resistance 0.48;
  geometric_mean_radius 0.0158;
  rating.summer.continuous 1000.0;
  rating.summer.emergency 1000.0;
  rating.winter.continuous 1000.0;
  rating.winter.emergency 1000.0;
}
object triplex_line_configuration {
  name ID_631;
  conductor_1 triplex_4/0 AA;
  conductor_2 triplex_4/0 AA;
  conductor_N triplex_4/0 AA;
  insulation_thickness 0.08;
  diameter 0.522;
}
object underground_line_conductor {
  name ID_1214;
  rating.summer.continuous 214.0;
  outer_diameter 1.32;
  conductor_gmr 0.0177 ft;
  conductor_diameter 0.528;
  conductor_resistance 0.433488;
  neutral_gmr 0.00208 ft;
  neutral_resistance 14.87;
  neutral_diameter 0.0641;
  neutral_strands 11.0;
  insulation_relative_permitivitty 2.3;
}
object fuse {
  name R4_25_00_1_fuse_1;
// downstream 16.77 kva on CS
  phases CN;
  from R4_25_00_1_node_45;
  to R4_25_00_1_node_94;
  current_limit 40;
  status CLOSED;
  mean_replacement_time 3600;
}
object fuse {
  name R4_25_00_1_fuse_2;
// downstream 1.02 kva on CS
  phases CN;
  from R4_25_00_1_node_161;
  to R4_25_00_1_node_96;
  current_limit 40;
  status CLOSED;
  mean_replacement_time 3600;
}
object fuse {
  name R4_25_00_1_fuse_3;
// downstream 11.22 kva on CS
  phases CN;
  from R4_25_00_1_node_162;
  to R4_25_00_1_node_77;
  current_limit 40;
  status CLOSED;
  mean_replacement_time 3600;
}
object fuse {
  name R4_25_00_1_fuse_4;
// downstream 91.79 kva on CS
  phases CN;
  from R4_25_00_1_node_134;
  to R4_25_00_1_node_78;
  current_limit 40;
  status CLOSED;
  mean_replacement_time 3600;
}
object fuse {
  name R4_25_00_1_fuse_5;
// downstream 19.39 kva on CS
  phases CN;
  from R4_25_00_1_node_134;
  to R4_25_00_1_node_79;
  current_limit 40;
  status CLOSED;
  mean_replacement_time 3600;
}
object fuse {
  name R4_25_00_1_fuse_6;
// downstream 36.73 kva on CS
  phases CN;
  from R4_25_00_1_node_48;
  to R4_25_00_1_node_80;
  current_limit 40;
  status CLOSED;
  mean_replacement_time 3600;
}
object fuse {
  name R4_25_00_1_fuse_7;
// downstream 8.16 kva on CS
  phases CN;
  from R4_25_00_1_node_53;
  to R4_25_00_1_node_81;
  current_limit 40;
  status CLOSED;
  mean_replacement_time 3600;
}
object fuse {
  name R4_25_00_1_fuse_8;
// downstream 12.24 kva on CS
  phases CN;
  from R4_25_00_1_node_176;
  to R4_25_00_1_node_82;
  current_limit 40;
  status CLOSED;
  mean_replacement_time 3600;
}
object fuse {
  name R4_25_00_1_fuse_9;
// downstream 24.45 kva on CS
  phases CN;
  from R4_25_00_1_node_49;
  to R4_25_00_1_node_83;
  current_limit 40;
  status CLOSED;
  mean_replacement_time 3600;
}
object fuse {
  name R4_25_00_1_fuse_10;
// downstream 1.02 kva on CS
  phases CN;
  from R4_25_00_1_node_51;
  to R4_25_00_1_node_84;
  current_limit 40;
  status CLOSED;
  mean_replacement_time 3600;
}
object fuse {
  name R4_25_00_1_fuse_11;
// downstream 149.48 kva on BS
  phases BN;
  from R4_25_00_1_node_23;
  to R4_25_00_1_node_85;
  current_limit 40;
  status CLOSED;
  mean_replacement_time 3600;
}
object fuse {
  name R4_25_00_1_fuse_12;
// downstream 16.33 kva on CS
  phases CN;
  from R4_25_00_1_node_32;
  to R4_25_00_1_node_86;
  current_limit 40;
  status CLOSED;
  mean_replacement_time 3600;
}
object fuse {
  name R4_25_00_1_fuse_13;
// downstream 1.02 kva on BS
  phases BN;
  from R4_25_00_1_node_156;
  to R4_25_00_1_node_87;
  current_limit 40;
  status CLOSED;
  mean_replacement_time 3600;
}
object fuse {
  name R4_25_00_1_fuse_14;
// downstream 13.27 kva on AS
  phases AN;
  from R4_25_00_1_node_13;
  to R4_25_00_1_node_102;
  current_limit 40;
  status CLOSED;
  mean_replacement_time 3600;
}
object fuse {
  name R4_25_00_1_fuse_15;
// downstream 5.10 kva on AS
  phases AN;
  from R4_25_00_1_node_13;
  to R4_25_00_1_node_88;
  current_limit 40;
  status CLOSED;
  mean_replacement_time 3600;
}
object fuse {
  name R4_25_00_1_fuse_16;
// downstream 4.47 kva on BS
  phases BN;
  from R4_25_00_1_node_19;
  to R4_25_00_1_node_89;
  current_limit 40;
  status CLOSED;
  mean_replacement_time 3600;
}
object fuse {
  name R4_25_00_1_fuse_17;
// downstream 32.02 kva on CS
  phases CN;
  from R4_25_00_1_node_151;
  to R4_25_00_1_node_90;
  current_limit 40;
  status CLOSED;
  mean_replacement_time 3600;
}
object fuse {
  name R4_25_00_1_fuse_18;
// downstream 1.02 kva on AS
  phases AN;
  from R4_25_00_1_node_154;
  to R4_25_00_1_node_91;
  current_limit 40;
  status CLOSED;
  mean_replacement_time 3600;
}
object fuse {
  name R4_25_00_1_fuse_19;
// downstream 14.29 kva on CS
  phases CN;
  from R4_25_00_1_node_15;
  to R4_25_00_1_node_92;
  current_limit 40;
  status CLOSED;
  mean_replacement_time 3600;
}
object fuse {
  name R4_25_00_1_fuse_20;
// downstream 144.90 kva on CS
  phases CN;
  from R4_25_00_1_node_65;
  to R4_25_00_1_node_93;
  current_limit 40;
  status CLOSED;
  mean_replacement_time 3600;
}
object fuse {
  name R4_25_00_1_fuse_21;
// downstream 2.04 kva on CS
  phases CN;
  from R4_25_00_1_node_38;
  to R4_25_00_1_node_97;
  current_limit 40;
  status CLOSED;
  mean_replacement_time 3600;
}
object fuse {
  name R4_25_00_1_fuse_22;
// downstream 8.16 kva on CS
  phases CN;
  from R4_25_00_1_node_145;
  to R4_25_00_1_node_98;
  current_limit 40;
  status CLOSED;
  mean_replacement_time 3600;
}
object fuse {
  name R4_25_00_1_fuse_23;
// downstream 16.33 kva on CS
  phases CN;
  from R4_25_00_1_node_50;
  to R4_25_00_1_node_99;
  current_limit 40;
  status CLOSED;
  mean_replacement_time 3600;
}
object fuse {
  name R4_25_00_1_fuse_24;
// downstream 4.08 kva on CS
  phases CN;
  from R4_25_00_1_node_40;
  to R4_25_00_1_node_100;
  current_limit 40;
  status CLOSED;
  mean_replacement_time 3600;
}
object fuse {
  name R4_25_00_1_fuse_25;
// downstream 7.14 kva on CS
  phases CN;
  from R4_25_00_1_node_190;
  to R4_25_00_1_node_101;
  current_limit 40;
  status CLOSED;
  mean_replacement_time 3600;
}
object fuse {
  name R4_25_00_1_fuse_26;
// downstream 9.18 kva on CS
  phases CN;
  from R4_25_00_1_node_1;
  to R4_25_00_1_node_95;
  current_limit 40;
  status CLOSED;
  mean_replacement_time 3600;
}
object fuse {
  name R4_25_00_1_fuse_27;
// downstream 8.16 kva on CS
  phases CN;
  from R4_25_00_1_node_46;
  to R4_25_00_1_node_103;
  current_limit 40;
  status CLOSED;
  mean_replacement_time 3600;
}
object fuse {
  name R4_25_00_1_fuse_28;
// downstream 14.29 kva on CS
  phases CN;
  from R4_25_00_1_node_59;
  to R4_25_00_1_node_76;
  current_limit 40;
  status CLOSED;
  mean_replacement_time 3600;
}
object switch {
  name R4_25_00_1_switch_1;
  phases ABCN;
  from R4_25_00_1_node_127;
  to R4_25_00_1_node_74;
  status CLOSED;
}
object switch {
  name R4_25_00_1_switch_2;
// downstream 1033.72 kva on ABCS
  phases ABCN;
  from R4_25_00_1_node_2;
  to R4_25_00_1_node_75;
  status CLOSED;
}
object switch {
  name R4_25_00_1_switch_3;
  phases ABCN;
  from R4_25_00_1_node_32;
  to R4_25_00_1_node_73;
  status CLOSED;
}
object recloser {
  name R4-12-00-1_recloser_1;
// downstream 636.86 kva on CS
  phases CN;
  from R4_25_00_1_node_25;
  to R4_25_00_1_node_104;
  status CLOSED;
  operating_mode INDIVIDUAL;
  phase_A_state CLOSED;
  phase_B_state CLOSED;
  phase_C_state CLOSED;
  retry_time 1.0 s;
  max_number_of_tries 3;
  number_of_tries 0;
}
object overhead_line {
  name R4_25_00_1_ol_1;
// downstream 15.31 kva on BS
  phases BN;
  from R4_25_00_1_node_5;
  to R4_25_00_1_node_130;
  length 108.057;
  configuration ID_31;
}
object overhead_line {
  name R4_25_00_1_ol_2;
// downstream 7.14 kva on BS
  phases BN;
  from R4_25_00_1_node_130;
  to R4_25_00_1_node_4;
  length 52.756;
  configuration ID_31;
}
object overhead_line {
  name R4_25_00_1_ol_3;
// downstream 16.33 kva on CS
  phases CN;
  from R4_25_00_1_node_71;
  to R4_25_00_1_node_166;
  length 243.622;
  configuration ID_32;
}
object overhead_line {
  name R4_25_00_1_ol_4;
// downstream 7.14 kva on CS
  phases CN;
  from R4_25_00_1_node_166;
  to R4_25_00_1_node_167;
  length 285.109;
  configuration ID_32;
}
object overhead_line {
  name R4_25_00_1_ol_5;
// downstream 3.06 kva on CS
  phases CN;
  from R4_25_00_1_node_167;
  to R4_25_00_1_node_168;
  length 249.452;
  configuration ID_32;
}
object overhead_line {
  name R4_25_00_1_ol_6;
// downstream 119.39 kva on CS
  phases CN;
  from R4_25_00_1_node_68;
  to R4_25_00_1_node_69;
  length 250.280;
  configuration ID_32;
}
object overhead_line {
  name R4_25_00_1_ol_7;
// downstream 73.47 kva on CS
  phases CN;
  from R4_25_00_1_node_69;
  to R4_25_00_1_node_162;
  length 229.582;
  configuration ID_32;
}
object overhead_line {
  name R4_25_00_1_ol_8;
// downstream 55.10 kva on CS
  phases CN;
  from R4_25_00_1_node_162;
  to R4_25_00_1_node_163;
  length 202.543;
  configuration ID_32;
}
object overhead_line {
  name R4_25_00_1_ol_9;
// downstream 36.73 kva on CS
  phases CN;
  from R4_25_00_1_node_163;
  to R4_25_00_1_node_71;
  length 253.085;
  configuration ID_32;
}
object overhead_line {
  name R4_25_00_1_ol_10;
// downstream 16.33 kva on CS
  phases CN;
  from R4_25_00_1_node_69;
  to R4_25_00_1_node_161;
  length 189.649;
  configuration ID_32;
}
object overhead_line {
  name R4_25_00_1_ol_11;
// downstream 1033.72 kva on ABCS
  phases ABCN;
  from R4_25_00_1_node_11;
  to R4_25_00_1_node_12;
  length 442.207;
  configuration ID_33;
}
object overhead_line {
  name R4_25_00_1_ol_12;
// downstream 6.12 kva on CS
  phases CN;
  from R4_25_00_1_node_57;
  to R4_25_00_1_node_199;
  length 233.246;
  configuration ID_32;
}
object overhead_line {
  name R4_25_00_1_ol_13;
// downstream 8.16 kva on CS
  phases CN;
  from R4_25_00_1_node_55;
  to R4_25_00_1_node_195;
  length 29.791;
  configuration ID_32;
}
object overhead_line {
  name R4_25_00_1_ol_14;
// downstream 7.14 kva on CS
  phases CN;
  from R4_25_00_1_node_64;
  to R4_25_00_1_node_204;
  length 246.808;
  configuration ID_32;
}
object overhead_line {
  name R4_25_00_1_ol_15;
// downstream 1.02 kva on CS
  phases CN;
  from R4_25_00_1_node_64;
  to R4_25_00_1_node_203;
  length 198.611;
  configuration ID_32;
}
object overhead_line {
  name R4_25_00_1_ol_16;
// downstream 16.33 kva on CS
  phases CN;
  from R4_25_00_1_node_33;
  to R4_25_00_1_node_106;
  length 153.368;
  configuration ID_32;
}
object overhead_line {
  name R4_25_00_1_ol_17;
// downstream 14.29 kva on CS
  phases CN;
  from R4_25_00_1_node_106;
  to R4_25_00_1_node_37;
  length 86.082;
  configuration ID_32;
}
object overhead_line {
  name R4_25_00_1_ol_18;
// downstream 20.89 kva on ABCS
  phases ABCN;
  from R4_25_00_1_node_23;
  to R4_25_00_1_node_22;
  length 157.183;
  configuration ID_33;
}
object overhead_line {
  name R4_25_00_1_ol_19;
// downstream 170.36 kva on ABCS
  phases ABCN;
  from R4_25_00_1_node_24;
  to R4_25_00_1_node_23;
  length 70.785;
  configuration ID_33;
}
object overhead_line {
  name R4_25_00_1_ol_20;
// downstream 76.53 kva on BS
  phases BN;
  from R4_25_00_1_node_116;
  to R4_25_00_1_node_8;
  length 164.667;
  configuration ID_31;
}
object overhead_line {
  name R4_25_00_1_ol_21;
// downstream 68.37 kva on BS
  phases BN;
  from R4_25_00_1_node_8;
  to R4_25_00_1_node_118;
  length 177.265;
  configuration ID_31;
}
object overhead_line {
  name R4_25_00_1_ol_22;
// downstream 58.16 kva on BS
  phases BN;
  from R4_25_00_1_node_118;
  to R4_25_00_1_node_119;
  length 264.433;
  configuration ID_31;
}
object overhead_line {
  name R4_25_00_1_ol_23;
// downstream 41.84 kva on BS
  phases BN;
  from R4_25_00_1_node_119;
  to R4_25_00_1_node_120;
  length 239.233;
  configuration ID_31;
}
object overhead_line {
  name R4_25_00_1_ol_24;
// downstream 31.63 kva on BS
  phases BN;
  from R4_25_00_1_node_120;
  to R4_25_00_1_node_121;
  length 217.207;
  configuration ID_31;
}
object overhead_line {
  name R4_25_00_1_ol_25;
// downstream 26.53 kva on BS
  phases BN;
  from R4_25_00_1_node_121;
  to R4_25_00_1_node_7;
  length 203.576;
  configuration ID_31;
}
object overhead_line {
  name R4_25_00_1_ol_26;
// downstream 15.31 kva on BS
  phases BN;
  from R4_25_00_1_node_7;
  to R4_25_00_1_node_5;
  length 216.339;
  configuration ID_31;
}
object overhead_line {
  name R4_25_00_1_ol_27;
// downstream 7.14 kva on BS
  phases BN;
  from R4_25_00_1_node_4;
  to R4_25_00_1_node_122;
  length 288.583;
  configuration ID_31;
}
object overhead_line {
  name R4_25_00_1_ol_28;
// downstream 11.81 kva on BS
  phases BN;
  from R4_25_00_1_node_123;
  to R4_25_00_1_node_124;
  length 344.378;
  configuration ID_34;
}
object overhead_line {
  name R4_25_00_1_ol_29;
// downstream 8.75 kva on BS
  phases BN;
  from R4_25_00_1_node_124;
  to R4_25_00_1_node_125;
  length 224.531;
  configuration ID_34;
}
object overhead_line {
  name R4_25_00_1_ol_30;
// downstream 2.04 kva on BS
  phases BN;
  from R4_25_00_1_node_125;
  to R4_25_00_1_node_10;
  length 351.661;
  configuration ID_34;
}
object overhead_line {
  name R4_25_00_1_ol_31;
// downstream 25.08 kva on BS
  phases BN;
  from R4_25_00_1_node_116;
  to R4_25_00_1_node_123;
  length 725.231;
  configuration ID_34;
}
object overhead_line {
  name R4_25_00_1_ol_32;
// downstream 16.41 kva on ABCS
  phases ABCN;
  from R4_25_00_1_node_18;
  to R4_25_00_1_node_127;
  length 176.244;
  configuration ID_33;
}
object overhead_line {
  name R4_25_00_1_ol_33;
// downstream 16.33 kva on CS
  phases ABCN;
  from R4_25_00_1_node_30;
  to R4_25_00_1_node_32;
  length 222.055;
  configuration ID_33;
}
object overhead_line {
  name R4_25_00_1_ol_34;
  phases AN;
  from R4_25_00_1_node_32;
  to R4_25_00_1_node_31;
  length 183.558;
  configuration ID_35;
}
object overhead_line {
  name R4_25_00_1_ol_35;
// downstream 2.04 kva on BS
  phases BN;
  from R4_25_00_1_node_10;
  to R4_25_00_1_node_131;
  length 210.301;
  configuration ID_34;
}
object overhead_line {
  name R4_25_00_1_ol_36;
// downstream 11.22 kva on CS
  phases CN;
  from R4_25_00_1_node_71;
  to R4_25_00_1_node_164;
  length 160.023;
  configuration ID_32;
}
object overhead_line {
  name R4_25_00_1_ol_37;
// downstream 9.18 kva on CS
  phases CN;
  from R4_25_00_1_node_71;
  to R4_25_00_1_node_165;
  length 314.152;
  configuration ID_32;
}
object overhead_line {
  name R4_25_00_1_ol_38;
// downstream 14.29 kva on CS
  phases CN;
  from R4_25_00_1_node_37;
  to R4_25_00_1_node_137;
  length 408.163;
  configuration ID_32;
}
object overhead_line {
  name R4_25_00_1_ol_39;
// downstream 2.04 kva on CS
  phases CN;
  from R4_25_00_1_node_137;
  to R4_25_00_1_node_38;
  length 145.889;
  configuration ID_32;
}
object overhead_line {
  name R4_25_00_1_ol_40;
// downstream 565.43 kva on CS
  phases CN;
  from R4_25_00_1_node_35;
  to R4_25_00_1_node_1;
  length 324.521;
  configuration ID_36;
}
object overhead_line {
  name R4_25_00_1_ol_41;
// downstream 556.24 kva on CS
  phases CN;
  from R4_25_00_1_node_1;
  to R4_25_00_1_node_135;
  length 461.195;
  configuration ID_36;
}
object overhead_line {
  name R4_25_00_1_ol_42;
// downstream 369.16 kva on CS
  phases CN;
  from R4_25_00_1_node_134;
  to R4_25_00_1_node_45;
  length 688.880;
  configuration ID_37;
}
object overhead_line {
  name R4_25_00_1_ol_43;
// downstream 343.21 kva on CS
  phases CN;
  from R4_25_00_1_node_45;
  to R4_25_00_1_node_47;
  length 132.106;
  configuration ID_37;
}
object overhead_line {
  name R4_25_00_1_ol_44;
// downstream 41.21 kva on CS
  phases CN;
  from R4_25_00_1_node_135;
  to R4_25_00_1_node_144;
  length 635.432;
  configuration ID_32;
}
object overhead_line {
  name R4_25_00_1_ol_45;
// downstream 28.96 kva on CS
  phases CN;
  from R4_25_00_1_node_144;
  to R4_25_00_1_node_143;
  length 356.372;
  configuration ID_32;
}
object overhead_line {
  name R4_25_00_1_ol_46;
// downstream 12.64 kva on CS
  phases CN;
  from R4_25_00_1_node_143;
  to R4_25_00_1_node_145;
  length 213.926;
  configuration ID_32;
}
object overhead_line {
  name R4_25_00_1_ol_47;
// downstream 7.14 kva on CS
  phases CN;
  from R4_25_00_1_node_44;
  to R4_25_00_1_node_142;
  length 502.022;
  configuration ID_32;
}
object overhead_line {