clock {
     timezone EST+5EDT;
  timestamp '2010-06-01 00:00:00';
  stoptime '2010-06-03 00:00:00';
}
#set profiler=1
module tape;
module powerflow{
     solver_method NR;
      default_maximum_voltage_error 1e-6;
};
#ifdef WANT_VI_DUMP
#endif
module climate;
module generators;
module connection;
module residential {
  implicit_enduses NONE;
};
#include "../../../../support/schedules/appliance_schedules.glm";
#include "../../../../support/schedules/water_and_setpoint_schedule_v5.glm";
#include "../../../../support/schedules/commercial_schedules.glm";
#set minimum_timestep=15;
#set relax_naming_rules=1;
#set warn=0;
object metrics_collector_writer {
  interval 300;
  interim 43200;
  filename ${METRICS_FILE};
  // filename R5-12.47-2_processed_metrics.json;
};
object climate {
  name localWeather;
  // tmyfile "../../../../support/weather/AZ-Tucson_International_Ap.tmy3";
  // agent name weather
  interpolate QUADRATIC;
  latitude 30.0;
  longitude -110.0;
  // altitude 0.0;
  tz_meridian 0.0;
};
// default IEEE 1547-2018 settings for Category B
#define INV_VBASE=240.0
#define INV_V1=0.92
#define INV_V2=0.98
#define INV_V3=1.02
#define INV_V4=1.08
#define INV_Q1=0.44
#define INV_Q2=0.00
#define INV_Q3=0.00
#define INV_Q4=-0.44
#define INV_VIN=200.0
#define INV_IIN=32.5
#define INV_VVLOCKOUT=300.0
#define INV_VW_V1=1.05 // 1.05833
#define INV_VW_V2=1.10
#define INV_VW_P1=1.0
#define INV_VW_P2=0.0
#ifdef WANT_VI_DUMP
object voltdump {
  filename Voltage_Dump_R5-12.47-2_processed.csv;
  mode polar;
}
object currdump {
  filename Current_Dump_R5-12.47-2_processed.csv;
  mode polar;
}
#endif // &&& end of common section for combining TESP cases
// solar inverter mode on this feeder
#define INVERTER_MODE=CONSTANT_PF
object transformer_configuration {
  name XF1_POLETOP_CS_25;
  power_rating 25.00;
  powerA_rating 0.0;
  powerB_rating 0.0;
  powerC_rating 25.00;
  install_type POLETOP;
  connect_type SINGLE_PHASE_CENTER_TAPPED;
  primary_voltage 7200.0;
  secondary_voltage 120.0;
  resistance 0.00800;
  resistance1 0.01600;
  resistance2 0.01600;
  reactance 0.01208;
  reactance1 0.00604;
  reactance2 0.00604;
  shunt_resistance 192.31;
  shunt_reactance 51.81;
}
object transformer_configuration {
  name XF1_POLETOP_CS_10;
  power_rating 10.00;
  powerA_rating 0.0;
  powerB_rating 0.0;
  powerC_rating 10.00;
  install_type POLETOP;
  connect_type SINGLE_PHASE_CENTER_TAPPED;
  primary_voltage 7200.0;
  secondary_voltage 120.0;
  resistance 0.00950;
  resistance1 0.01900;
  resistance2 0.01900;
  reactance 0.01040;
  reactance1 0.00520;
  reactance2 0.00520;
  shunt_resistance 147.06;
  shunt_reactance 34.25;
}
object transformer_configuration {
  name XF1_POLETOP_AS_37p5;
  power_rating 37.50;
  powerA_rating 37.50;
  powerB_rating 0.0;
  powerC_rating 0.0;
  install_type POLETOP;
  connect_type SINGLE_PHASE_CENTER_TAPPED;
  primary_voltage 7200.0;
  secondary_voltage 120.0;
  resistance 0.00725;
  resistance1 0.01450;
  resistance2 0.01450;
  reactance 0.01320;
  reactance1 0.00660;
  reactance2 0.00660;
  shunt_resistance 212.77;
  shunt_reactance 57.47;
}
object transformer_configuration {
  name XF1_POLETOP_BS_37p5;
  power_rating 37.50;
  powerA_rating 0.0;
  powerB_rating 37.50;
  powerC_rating 0.0;
  install_type POLETOP;
  connect_type SINGLE_PHASE_CENTER_TAPPED;
  primary_voltage 7200.0;
  secondary_voltage 120.0;
  resistance 0.00725;
  resistance1 0.01450;
  resistance2 0.01450;
  reactance 0.01320;
  reactance1 0.00660;
  reactance2 0.00660;
  shunt_resistance 212.77;
  shunt_reactance 57.47;
}
object transformer_configuration {
  name XF1_POLETOP_CS_37p5;
  power_rating 37.50;
  powerA_rating 0.0;
  powerB_rating 0.0;
  powerC_rating 37.50;
  install_type POLETOP;
  connect_type SINGLE_PHASE_CENTER_TAPPED;
  primary_voltage 7200.0;
  secondary_voltage 120.0;
  resistance 0.00725;
  resistance1 0.01450;
  resistance2 0.01450;
  reactance 0.01320;
  reactance1 0.00660;
  reactance2 0.00660;
  shunt_resistance 212.77;
  shunt_reactance 57.47;
}
object transformer_configuration {
  name XF1_POLETOP_AS_25;
  power_rating 25.00;
  powerA_rating 25.00;
  powerB_rating 0.0;
  powerC_rating 0.0;
  install_type POLETOP;
  connect_type SINGLE_PHASE_CENTER_TAPPED;
  primary_voltage 7200.0;
  secondary_voltage 120.0;
  resistance 0.00800;
  resistance1 0.01600;
  resistance2 0.01600;
  reactance 0.01208;
  reactance1 0.00604;
  reactance2 0.00604;
  shunt_resistance 192.31;
  shunt_reactance 51.81;
}
object transformer_configuration {
  name XF1_POLETOP_BS_5;
  power_rating 5.00;
  powerA_rating 0.0;
  powerB_rating 5.00;
  powerC_rating 0.0;
  install_type POLETOP;
  connect_type SINGLE_PHASE_CENTER_TAPPED;
  primary_voltage 7200.0;
  secondary_voltage 120.0;
  resistance 0.01050;
  resistance1 0.02100;
  resistance2 0.02100;
  reactance 0.01224;
  reactance1 0.00612;
  reactance2 0.00612;
  shunt_resistance 111.11;
  shunt_reactance 29.59;
}
object transformer_configuration {
  name XF1_POLETOP_CS_5;
  power_rating 5.00;
  powerA_rating 0.0;
  powerB_rating 0.0;
  powerC_rating 5.00;
  install_type POLETOP;
  connect_type SINGLE_PHASE_CENTER_TAPPED;
  primary_voltage 7200.0;
  secondary_voltage 120.0;
  resistance 0.01050;
  resistance1 0.02100;
  resistance2 0.02100;
  reactance 0.01224;
  reactance1 0.00612;
  reactance2 0.00612;
  shunt_resistance 111.11;
  shunt_reactance 29.59;
}
object transformer_configuration {
  name XF1_POLETOP_AS_10;
  power_rating 10.00;
  powerA_rating 10.00;
  powerB_rating 0.0;
  powerC_rating 0.0;
  install_type POLETOP;
  connect_type SINGLE_PHASE_CENTER_TAPPED;
  primary_voltage 7200.0;
  secondary_voltage 120.0;
  resistance 0.00950;
  resistance1 0.01900;
  resistance2 0.01900;
  reactance 0.01040;
  reactance1 0.00520;
  reactance2 0.00520;
  shunt_resistance 147.06;
  shunt_reactance 34.25;
}
object transformer_configuration {
  name XF1_POLETOP_AS_5;
  power_rating 5.00;
  powerA_rating 5.00;
  powerB_rating 0.0;
  powerC_rating 0.0;
  install_type POLETOP;
  connect_type SINGLE_PHASE_CENTER_TAPPED;
  primary_voltage 7200.0;
  secondary_voltage 120.0;
  resistance 0.01050;
  resistance1 0.02100;
  resistance2 0.02100;
  reactance 0.01224;
  reactance1 0.00612;
  reactance2 0.00612;
  shunt_resistance 111.11;
  shunt_reactance 29.59;
}
object transformer_configuration {
  name XF1_POLETOP_BS_25;
  power_rating 25.00;
  powerA_rating 0.0;
  powerB_rating 25.00;
  powerC_rating 0.0;
  install_type POLETOP;
  connect_type SINGLE_PHASE_CENTER_TAPPED;
  primary_voltage 7200.0;
  secondary_voltage 120.0;
  resistance 0.00800;
  resistance1 0.01600;
  resistance2 0.01600;
  reactance 0.01208;
  reactance1 0.00604;
  reactance2 0.00604;
  shunt_resistance 192.31;
  shunt_reactance 51.81;
}
object transformer_configuration {
  name XF1_POLETOP_BS_10;
  power_rating 10.00;
  powerA_rating 0.0;
  powerB_rating 10.00;
  powerC_rating 0.0;
  install_type POLETOP;
  connect_type SINGLE_PHASE_CENTER_TAPPED;
  primary_voltage 7200.0;
  secondary_voltage 120.0;
  resistance 0.00950;
  resistance1 0.01900;
  resistance2 0.01900;
  reactance 0.01040;
  reactance1 0.00520;
  reactance2 0.00520;
  shunt_resistance 147.06;
  shunt_reactance 34.25;
}
object transformer_configuration {
  name XF1_POLETOP_AS_15;
  power_rating 15.00;
  powerA_rating 15.00;
  powerB_rating 0.0;
  powerC_rating 0.0;
  install_type POLETOP;
  connect_type SINGLE_PHASE_CENTER_TAPPED;
  primary_voltage 7200.0;
  secondary_voltage 120.0;
  resistance 0.00850;
  resistance1 0.01700;
  resistance2 0.01700;
  reactance 0.01176;
  reactance1 0.00588;
  reactance2 0.00588;
  shunt_resistance 166.67;
  shunt_reactance 39.53;
}
object transformer_configuration {
  name XF1_POLETOP_CS_15;
  power_rating 15.00;
  powerA_rating 0.0;
  powerB_rating 0.0;
  powerC_rating 15.00;
  install_type POLETOP;
  connect_type SINGLE_PHASE_CENTER_TAPPED;
  primary_voltage 7200.0;
  secondary_voltage 120.0;
  resistance 0.00850;
  resistance1 0.01700;
  resistance2 0.01700;
  reactance 0.01176;
  reactance1 0.00588;
  reactance2 0.00588;
  shunt_resistance 166.67;
  shunt_reactance 39.53;
}
object transformer_configuration {
  name XF1_POLETOP_BS_15;
  power_rating 15.00;
  powerA_rating 0.0;
  powerB_rating 15.00;
  powerC_rating 0.0;
  install_type POLETOP;
  connect_type SINGLE_PHASE_CENTER_TAPPED;
  primary_voltage 7200.0;
  secondary_voltage 120.0;
  resistance 0.00850;
  resistance1 0.01700;
  resistance2 0.01700;
  reactance 0.01176;
  reactance1 0.00588;
  reactance2 0.00588;
  shunt_resistance 166.67;
  shunt_reactance 39.53;
}
object transformer_configuration {
  name XF3_POLETOP_ABCN_112p5;
  power_rating 112.50;
  powerA_rating 37.50;
  powerB_rating 37.50;
  powerC_rating 37.50;
  install_type POLETOP;
  connect_type WYE_WYE;
  primary_voltage 12470.0;
  secondary_voltage 480.0;
  resistance 0.01450;
  reactance 0.02850;
  shunt_resistance 169.49;
  shunt_reactance 33.44;
}
object transformer_configuration {
  name XF3_POLETOP_ABCN_75;
  power_rating 75.00;
  powerA_rating 25.00;
  powerB_rating 25.00;
  powerC_rating 25.00;
  install_type POLETOP;
  connect_type WYE_WYE;
  primary_voltage 12470.0;
  secondary_voltage 208.0;
  resistance 0.01600;
  reactance 0.02420;
  shunt_resistance 158.73;
  shunt_reactance 30.86;
}
object transformer_configuration {
  name XF3_POLETOP_ABCN_225;
  power_rating 225.00;
  powerA_rating 75.00;
  powerB_rating 75.00;
  powerC_rating 75.00;
  install_type POLETOP;
  connect_type WYE_WYE;
  primary_voltage 12470.0;
  secondary_voltage 480.0;
  resistance 0.01300;
  reactance 0.03520;
  shunt_resistance 200.00;
  shunt_reactance 40.00;
}
object transformer_configuration {
  name XF3_POLETOP_ABCN_750;
  power_rating 750.00;
  powerA_rating 250.00;
  powerB_rating 250.00;
  powerC_rating 250.00;
  install_type POLETOP;
  connect_type WYE_WYE;
  primary_voltage 12470.0;
  secondary_voltage 480.0;
  resistance 0.00970;
  reactance 0.05110;
  shunt_resistance 227.27;
  shunt_reactance 52.91;
}
object transformer_configuration {
  name XF3_POLETOP_ABCN_500;
  power_rating 500.00;
  powerA_rating 166.67;
  powerB_rating 166.67;
  powerC_rating 166.67;
  install_type POLETOP;
  connect_type WYE_WYE;
  primary_voltage 12470.0;
  secondary_voltage 480.0;
  resistance 0.01100;
  reactance 0.04880;
  shunt_resistance 222.22;
  shunt_reactance 44.25;
}
object transformer_configuration {
  name XF1_POLETOP_AN_10;
  power_rating 10.00;
  powerA_rating 10.00;
  powerB_rating 0.0;
  powerC_rating 0.0;
  install_type POLETOP;
  connect_type WYE_WYE;
  primary_voltage 12470.0;
  secondary_voltage 208.0;
  resistance 0.01900;
  reactance 0.01770;
  shunt_resistance 126.58;
  shunt_reactance 22.57;
}
object transformer_configuration {
  name XF3_POLETOP_ABCN_1000;
  power_rating 1000.00;
  powerA_rating 333.33;
  powerB_rating 333.33;
  powerC_rating 333.33;
  install_type POLETOP;
  connect_type WYE_WYE;
  primary_voltage 12470.0;
  secondary_voltage 480.0;
  resistance 0.00850;
  reactance 0.05690;
  shunt_resistance 232.56;
  shunt_reactance 60.61;
}
object transformer_configuration {
  name XF3_POLETOP_ABCN_30;
  power_rating 30.00;
  powerA_rating 10.00;
  powerB_rating 10.00;
  powerC_rating 10.00;
  install_type POLETOP;
  connect_type WYE_WYE;
  primary_voltage 12470.0;
  secondary_voltage 208.0;
  resistance 0.01900;
  reactance 0.01770;
  shunt_resistance 126.58;
  shunt_reactance 22.57;
}
object transformer_configuration {
  name XF1_POLETOP_AN_37p5;
  power_rating 37.50;
  powerA_rating 37.50;
  powerB_rating 0.0;
  powerC_rating 0.0;
  install_type POLETOP;
  connect_type WYE_WYE;
  primary_voltage 12470.0;
  secondary_voltage 208.0;
  resistance 0.01750;
  reactance 0.02120;
  shunt_resistance 142.86;
  shunt_reactance 25.38;
}
object transformer_configuration {
  name XF2_POLETOP_ABN_30;
  power_rating 30.00;
  powerA_rating 15.00;
  powerB_rating 15.00;
  powerC_rating 0.0;
  install_type POLETOP;
  connect_type WYE_WYE;
  primary_voltage 12470.0;
  secondary_voltage 208.0;
  resistance 0.01900;
  reactance 0.01770;
  shunt_resistance 126.58;
  shunt_reactance 22.57;
}
object transformer_configuration {
  name XF1_POLETOP_AN_25;
  power_rating 25.00;
  powerA_rating 25.00;
  powerB_rating 0.0;
  powerC_rating 0.0;
  install_type POLETOP;
  connect_type WYE_WYE;
  primary_voltage 12470.0;
  secondary_voltage 208.0;
  resistance 0.01900;
  reactance 0.01770;
  shunt_resistance 126.58;
  shunt_reactance 22.57;
}
object transformer_configuration {
  name XF2_POLETOP_ACN_30;
  power_rating 30.00;
  powerA_rating 15.00;
  powerB_rating 0.0;
  powerC_rating 15.00;
  install_type POLETOP;
  connect_type WYE_WYE;
  primary_voltage 12470.0;
  secondary_voltage 208.0;
  resistance 0.01900;
  reactance 0.01770;
  shunt_resistance 126.58;
  shunt_reactance 22.57;
}
object transformer_configuration {
  name XF1_POLETOP_BN_25;
  power_rating 25.00;
  powerA_rating 0.0;
  powerB_rating 25.00;
  powerC_rating 0.0;
  install_type POLETOP;
  connect_type WYE_WYE;
  primary_voltage 12470.0;
  secondary_voltage 208.0;
  resistance 0.01900;
  reactance 0.01770;
  shunt_resistance 126.58;
  shunt_reactance 22.57;
}
object transformer_configuration {
  name XF3_POLETOP_ABCN_45;
  power_rating 45.00;
  powerA_rating 15.00;
  powerB_rating 15.00;
  powerC_rating 15.00;
  install_type POLETOP;
  connect_type WYE_WYE;
  primary_voltage 12470.0;
  secondary_voltage 208.0;
  resistance 0.01750;
  reactance 0.02120;
  shunt_resistance 142.86;
  shunt_reactance 25.38;
}
object triplex_line_conductor {
  name triplex_4/0_aa;
  resistance 0.48;
  geometric_mean_radius 0.0158;
  rating.summer.continuous 1000.0;
  rating.summer.emergency 1000.0;
  rating.winter.continuous 1000.0;
  rating.winter.emergency 1000.0;
}
object triplex_line_configuration {
  name tpx_config;
  conductor_1 triplex_4/0_aa;
  conductor_2 triplex_4/0_aa;
  conductor_N triplex_4/0_aa;
  insulation_thickness 0.08;
  diameter 0.522;
}
object regulator_configuration {
  name feeder_reg_cfg;
  Control OUTPUT_VOLTAGE;
  band_center 7500.0;
  band_width 120;
  connect_type WYE_WYE;
  time_delay 30;
  raise_taps 16;
  lower_taps 16;
  regulation 0.10;
  tap_pos_A 0;
  tap_pos_B 0;
  tap_pos_C 0;
}
object overhead_line_conductor {
  name ID_667;
  rating.summer.continuous 891.0;
  geometric_mean_radius 0.03550 ft;
  resistance 0.14420;
}
object overhead_line_conductor {
  name ID_668;
  rating.summer.continuous 230.0;
  geometric_mean_radius 0.01203 ft;
  resistance 0.95300;
}
object overhead_line_conductor {
  name ID_669;
  rating.summer.continuous 197.0;
  geometric_mean_radius 0.00883 ft;
  resistance 1.51970;
}
object overhead_line_conductor {
  name ID_670;
  rating.summer.continuous 714.0;
  geometric_mean_radius 0.01703 ft;
  resistance 0.21600;
}
object overhead_line_conductor {
  name ID_671;
  rating.summer.continuous 123.0;
  geometric_mean_radius 0.00437 ft;
  resistance 2.53069;
}
object overhead_line_conductor {
  name ID_672;
  rating.summer.continuous 90.0;
  geometric_mean_radius 0.00599 ft;
  resistance 0.67000;
}
object overhead_line_conductor {
  name ID_673;
  rating.summer.continuous 270.0;
  geometric_mean_radius 0.01350 ft;
  resistance 0.13200;
}
object overhead_line_conductor {
  name ID_674;
  rating.summer.continuous 360.0;
  geometric_mean_radius 0.01033 ft;
  resistance 0.47600;
}
object line_spacing {
  name ID_68;
  distance_AB 48.0 in;
  distance_BC 48.0 in;
  distance_AC 48.0 in;
  distance_AN 36.0 in;
  distance_BN 36.0 in;
  distance_CN 36.0 in;
}
object line_spacing {
  name ID_69;
  distance_CN 36.0 in;
}
object line_spacing {
  name ID_70;
  distance_AN 36.0 in;
}
object line_spacing {
  name ID_71;
  distance_AB 36.0 in;
  distance_BC 36.0 in;
  distance_AC 36.0 in;
  distance_AN 48.0 in;
  distance_BN 48.0 in;
  distance_CN 48.0 in;
}
object line_spacing {
  name ID_72;
  distance_AB 36.0 in;
  distance_AN 48.0 in;
  distance_BN 48.0 in;
}
object line_spacing {
  name ID_73;
  distance_AN 48.0 in;
}
object line_spacing {
  name ID_74;
  distance_AC 36.0 in;
  distance_AN 48.0 in;
  distance_CN 48.0 in;
}
object line_spacing {
  name ID_75;
  distance_CN 48.0 in;
}
object line_spacing {
  name ID_76;
  distance_BN 48.0 in;
}
object line_configuration {
  name ID_39;
  conductor_A ID_667;
  conductor_B ID_667;
  conductor_C ID_667;
  conductor_N ID_667;
  spacing ID_68;
}
object line_configuration {
  name ID_40;
  conductor_C ID_667;
  conductor_N ID_667;
  spacing ID_69;
}
object line_configuration {
  name ID_41;
  conductor_A ID_667;
  conductor_N ID_667;
  spacing ID_70;
}
object line_configuration {
  name ID_42;
  conductor_A ID_668;
  conductor_B ID_668;
  conductor_C ID_668;
  conductor_N ID_668;
  spacing ID_71;
}
object line_configuration {
  name ID_43;
  conductor_A ID_669;
  conductor_B ID_669;
  conductor_N ID_669;
  spacing ID_72;
}
object line_configuration {
  name ID_44;
  conductor_A ID_670;
  conductor_B ID_670;
  conductor_C ID_670;
  conductor_N ID_670;
  spacing ID_71;
}
object line_configuration {
  name ID_45;
  conductor_A ID_668;
  conductor_N ID_668;
  spacing ID_73;
}
object line_configuration {
  name ID_46;
  conductor_A ID_669;
  conductor_B ID_669;
  conductor_C ID_669;
  conductor_N ID_669;
  spacing ID_71;
}
object line_configuration {
  name ID_47;
  conductor_A ID_671;
  conductor_B ID_671;
  conductor_C ID_671;
  conductor_N ID_671;
  spacing ID_71;
}
object line_configuration {
  name ID_48;
  conductor_A ID_672;
  conductor_C ID_672;
  conductor_N ID_672;
  spacing ID_74;
}
object line_configuration {
  name ID_49;
  conductor_A ID_671;
  conductor_B ID_671;
  conductor_C ID_671;
  conductor_N ID_671;
  spacing ID_71;
}
object line_configuration {
  name ID_50;
  conductor_A ID_671;
  conductor_C ID_671;
  conductor_N ID_671;
  spacing ID_74;
}
object line_configuration {
  name ID_51;
  conductor_C ID_668;
  conductor_N ID_668;
  spacing ID_75;
}
object line_configuration {
  name ID_52;
  conductor_A ID_673;
  conductor_B ID_673;
  conductor_C ID_673;
  conductor_N ID_673;
  spacing ID_71;
}
object line_configuration {
  name ID_53;
  conductor_B ID_668;
  conductor_N ID_668;
  spacing ID_76;
}
object line_configuration {
  name ID_54;
  conductor_A ID_671;
  conductor_C ID_671;
  conductor_N ID_671;
  spacing ID_74;
}
object line_configuration {
  name ID_55;
  conductor_B ID_671;
  conductor_N ID_671;
  spacing ID_76;
}
object line_configuration {
  name ID_56;
  conductor_C ID_672;
  conductor_N ID_672;
  spacing ID_75;
}
object line_configuration {
  name ID_57;
  conductor_A ID_668;
  conductor_B ID_668;
  conductor_N ID_668;
  spacing ID_72;
}
object line_configuration {
  name ID_58;
  conductor_A ID_669;
  conductor_C ID_669;
  conductor_N ID_669;
  spacing ID_74;
}
object line_configuration {
  name ID_59;
  conductor_B ID_669;
  conductor_N ID_669;
  spacing ID_76;
}
object line_configuration {
  name ID_60;
  conductor_C ID_669;
  conductor_N ID_669;
  spacing ID_75;
}
object line_configuration {
  name ID_61;
  conductor_A ID_669;
  conductor_B ID_669;
  conductor_C ID_669;
  conductor_N ID_669;
  spacing ID_71;
}
object line_configuration {
  name ID_62;
  conductor_A ID_1562;
  conductor_B ID_1562;
  conductor_C ID_1562;
  conductor_N ID_1562;
  spacing ID_71;
}
object line_configuration {
  name ID_63;
  conductor_A ID_1563;
  conductor_B ID_1563;
  conductor_C ID_1563;
  conductor_N ID_1563;
  spacing ID_71;
}
object line_configuration {
  name ID_64;
  conductor_A ID_1562;
  conductor_N ID_1562;
  spacing ID_73;
}
object line_configuration {
  name ID_65;
  conductor_A ID_1564;
  conductor_B ID_1564;
  conductor_C ID_1564;
  conductor_N ID_1564;
  spacing ID_71;
}
object line_configuration {
  name ID_66;
  conductor_A ID_1565;
  conductor_B ID_1565;
  conductor_C ID_1565;
  conductor_N ID_1565;
  spacing ID_71;
}
object line_configuration {
  name ID_67;
  conductor_C ID_1562;
  conductor_N ID_1562;
  spacing ID_75;
}
object triplex_line_conductor {
  name triplex_4/0 AA;
  resistance 0.48;
  geometric_mean_radius 0.0158;
  rating.summer.continuous 1000.0;
  rating.summer.emergency 1000.0;
  rating.winter.continuous 1000.0;
  rating.winter.emergency 1000.0;
}
object triplex_line_configuration {
  name ID_932;
  conductor_1 triplex_4/0 AA;
  conductor_2 triplex_4/0 AA;
  conductor_N triplex_4/0 AA;
  insulation_thickness 0.08;
  diameter 0.522;
}
object underground_line_conductor {
  name ID_1562;
  rating.summer.continuous 112.0;
  outer_diameter 1.09;
  conductor_gmr 0.0088 ft;
  conductor_diameter 0.292;
  conductor_resistance 1.38336;
  neutral_gmr 0.00208 ft;
  neutral_resistance 14.87;
  neutral_diameter 0.0641;
  neutral_strands 6.0;
  insulation_relative_permitivitty 2.3;
}
object underground_line_conductor {
  name ID_1563;
  rating.summer.continuous 214.0;
  outer_diameter 1.32;
  conductor_gmr 0.0177 ft;
  conductor_diameter 0.528;
  conductor_resistance 0.433488;
  neutral_gmr 0.00208 ft;
  neutral_resistance 14.87;
  neutral_diameter 0.0641;
  neutral_strands 11.0;
  insulation_relative_permitivitty 2.3;
}
object underground_line_conductor {
  name ID_1564;
  rating.summer.continuous 425.0;
  outer_diameter 1.96;
  conductor_gmr 0.0321 ft;
  conductor_diameter 0.998;
  conductor_resistance 0.122496;
  neutral_gmr 0.00330 ft;
  neutral_resistance 5.9026;
  neutral_diameter 0.1019;
  neutral_strands 15.0;
  insulation_relative_permitivitty 2.3;
}
object underground_line_conductor {
  name ID_1565;
  rating.summer.continuous 488.0;
  outer_diameter 2.15;
  conductor_gmr 0.0371 ft;
  conductor_diameter 1.152;
  conductor_resistance 0.091872;
  neutral_gmr 0.00330 ft;
  neutral_resistance 5.9026;
  neutral_diameter 0.1019;
  neutral_strands 20.0;
  insulation_relative_permitivitty 2.3;
}
object fuse {
  name R5_12_47_2_fuse_1;
// downstream 42.74 kva on ABC
  phases ABCN;
  from R5_12_47_2_node_50;
  to R5_12_47_2_node_172;
  current_limit 40;
  status CLOSED;
  mean_replacement_time 3600;
}
object fuse {
  name R5_12_47_2_fuse_2;
// downstream 42.74 kva on ABC
  phases ABCN;
  from R5_12_47_2_node_49;
  to R5_12_47_2_node_173;
  current_limit 40;
  status CLOSED;
  mean_replacement_time 3600;
}
object fuse {
  name R5_12_47_2_fuse_3;
// downstream 712.26 kva on ABC
  phases ABCN;
  from R5_12_47_2_node_18;
  to R5_12_47_2_node_191;
  current_limit 100;
  status CLOSED;
  mean_replacement_time 3600;
}
object fuse {
  name R5_12_47_2_fuse_4;
// downstream 427.35 kva on ABC
  phases ABCN;
  from R5_12_47_2_node_17;
  to R5_12_47_2_node_199;
  current_limit 65;
  status CLOSED;
  mean_replacement_time 3600;
}
object fuse {
  name R5_12_47_2_fuse_5;
  phases ABCN;
  from R5_12_47_2_node_20;
  to R5_12_47_2_node_188;
  current_limit 50000;
  status CLOSED;
  mean_replacement_time 3600;
}
object fuse {
  name R5_12_47_2_fuse_6;
// downstream 712.26 kva on ABC
  phases ABCN;
  from R5_12_47_2_node_19;
  to R5_12_47_2_node_202;
  current_limit 100;
  status CLOSED;
  mean_replacement_time 3600;
}
object fuse {
  name R5_12_47_2_fuse_7;
  phases ABCN;
  from R5_12_47_2_node_57;
  to R5_12_47_2_node_198;
  current_limit 50000;
  status CLOSED;
  mean_replacement_time 3600;
}
object fuse {
  name R5_12_47_2_fuse_8;
// downstream 7.27 kva on A
  phases AN;
  from R5_12_47_2_node_38;
  to R5_12_47_2_node_189;
  current_limit 40;
  status CLOSED;
  mean_replacement_time 3600;
}
object fuse {
  name R5_12_47_2_fuse_9;
// downstream 36.34 kva on A
  phases AN;
  from R5_12_47_2_node_37;
  to R5_12_47_2_node_200;
  current_limit 40;
  status CLOSED;
  mean_replacement_time 3600;
}
object fuse {
  name R5_12_47_2_fuse_10;
// downstream 811.97 kva on ABC
  phases ABCN;
  from R5_12_47_2_node_56;
  to R5_12_47_2_node_197;
  current_limit 100;
  status CLOSED;
  mean_replacement_time 3600;
}
object fuse {
  name R5_12_47_2_fuse_11;
// downstream 64.98 kva on ABC
  phases ABCN;
  from R5_12_47_2_node_44;
  to R5_12_47_2_node_196;
  current_limit 40;
  status CLOSED;
  mean_replacement_time 3600;
}
object fuse {
  name R5_12_47_2_fuse_12;
// downstream 70.11 kva on AB
  phases ABN;
  from R5_12_47_2_node_42;
  to R5_12_47_2_node_203;
  current_limit 40;
  status CLOSED;
  mean_replacement_time 3600;
}
object fuse {
  name R5_12_47_2_fuse_13;
// downstream 14.54 kva on A
  phases AN;
  from R5_12_47_2_node_51;
  to R5_12_47_2_node_204;
  current_limit 40;
  status CLOSED;
  mean_replacement_time 3600;
}
object fuse {
  name R5_12_47_2_fuse_14;
// downstream 42.74 kva on ABC
  phases ABCN;
  from R5_12_47_2_node_46;
  to R5_12_47_2_node_178;
  current_limit 40;
  status CLOSED;
  mean_replacement_time 3600;
}
object fuse {
  name R5_12_47_2_fuse_15;
// downstream 712.26 kva on ABC
  phases ABCN;
  from R5_12_47_2_node_16;
  to R5_12_47_2_node_175;
  current_limit 100;
  status CLOSED;
  mean_replacement_time 3600;
}
object fuse {
  name R5_12_47_2_fuse_16;
// downstream 1139.61 kva on ABC
  phases ABCN;
  from R5_12_47_2_node_15;
  to R5_12_47_2_node_186;
  current_limit 200;
  status CLOSED;
  mean_replacement_time 3600;
}
object fuse {
  name R5_12_47_2_fuse_17;
// downstream 142.45 kva on ABC
  phases ABCN;
  from R5_12_47_2_node_21;
  to R5_12_47_2_node_184;
  current_limit 40;
  status CLOSED;
  mean_replacement_time 3600;
}
object fuse {
  name R5_12_47_2_fuse_18;
// downstream 127.00 kva on ABCS
  phases ABCN;
  from R5_12_47_2_node_9;
  to R5_12_47_2_node_171;
  current_limit 40;
  status CLOSED;
  mean_replacement_time 3600;
}
object fuse {
  name R5_12_47_2_fuse_19;
// downstream 94.31 kva on ACS
  phases ACN;
  from R5_12_47_2_node_9;
  to R5_12_47_2_node_170;
  current_limit 40;
  status CLOSED;
  mean_replacement_time 3600;
}
object fuse {
  name R5_12_47_2_fuse_20;
// downstream 390.69 kva on ABCS
  phases ABCN;
  from R5_12_47_2_node_8;
  to R5_12_47_2_node_179;
  current_limit 65;
  status CLOSED;
  mean_replacement_time 3600;
}
object fuse {
  name R5_12_47_2_fuse_21;
// downstream 77.06 kva on ACS
  phases ABCN;
  from R5_12_47_2_node_6;
  to R5_12_47_2_node_176;
  current_limit 40;
  status CLOSED;
  mean_replacement_time 3600;
}
object fuse {
  name R5_12_47_2_fuse_22;
// downstream 32.89 kva on ABC
  phases ABCN;
  from R5_12_47_2_node_53;
  to R5_12_47_2_node_182;
  current_limit 40;
  status CLOSED;
  mean_replacement_time 3600;
}
object fuse {
  name R5_12_47_2_fuse_23;
// downstream 188.18 kva on ABCS
  phases ABCN;
  from R5_12_47_2_node_5;
  to R5_12_47_2_node_177;
  current_limit 40;
  status CLOSED;
  mean_replacement_time 3600;
}
object fuse {
  name R5_12_47_2_fuse_24;
// downstream 42.74 kva on ABC
  phases ABCN;
  from R5_12_47_2_node_42;
  to R5_12_47_2_node_183;
  current_limit 40;
  status CLOSED;
  mean_replacement_time 3600;
}
object fuse {
  name R5_12_47_2_fuse_25;
// downstream 57.07 kva on CS
  phases CN;
  from R5_12_47_2_node_3;
  to R5_12_47_2_node_174;
  current_limit 40;
  status CLOSED;
  mean_replacement_time 3600;
}
object fuse {
  name R5_12_47_2_fuse_26;
// downstream 48.76 kva on BS
  phases BN;
  from R5_12_47_2_node_5;
  to R5_12_47_2_node_195;
  current_limit 40;
  status CLOSED;
  mean_replacement_time 3600;
}
object fuse {
  name R5_12_47_2_fuse_27;
// downstream 97.67 kva on ABCS
  phases ABCN;
  from R5_12_47_2_node_30;
  to R5_12_47_2_node_185;
  current_limit 40;
  status CLOSED;
  mean_replacement_time 3600;
}
object fuse {
  name R5_12_47_2_fuse_28;
// downstream 85.47 kva on ABCS
  phases ABCN;
  from R5_12_47_2_node_4;
  to R5_12_47_2_node_180;
  current_limit 40;
  status CLOSED;
  mean_replacement_time 3600;
}
object fuse {
  name R5_12_47_2_fuse_29;
// downstream 47.86 kva on ACS
  phases ABCN;
  from R5_12_47_2_node_29;
  to R5_12_47_2_node_192;
  current_limit 40;
  status CLOSED;
  mean_replacement_time 3600;
}
object fuse {
  name R5_12_47_2_fuse_30;
// downstream 13.93 kva on BS
  phases ABCN;
  from R5_12_47_2_node_30;
  to R5_12_47_2_node_190;
  current_limit 40;
  status CLOSED;
  mean_replacement_time 3600;
}
object fuse {
  name R5_12_47_2_fuse_31;
// downstream 238.10 kva on ABCS
  phases ABCN;
  from R5_12_47_2_node_3;
  to R5_12_47_2_node_194;
  current_limit 40;
  status CLOSED;
  mean_replacement_time 3600;
}
object fuse {
  name R5_12_47_2_fuse_32;
// downstream 14.27 kva on CS
  phases CN;
  from R5_12_47_2_node_2;
  to R5_12_47_2_node_193;
  current_limit 40;
  status CLOSED;
  mean_replacement_time 3600;
}
object fuse {
  name R5_12_47_2_fuse_33;
// downstream 7.13 kva on CS
  phases CN;
  from R5_12_47_2_node_32;
  to R5_12_47_2_node_181;
  current_limit 40;
  status CLOSED;
  mean_replacement_time 3600;
}
object fuse {
  name R5_12_47_2_fuse_34;
// downstream 427.35 kva on ABC
  phases ABCN;
  from R5_12_47_2_node_210;
  to R5_12_47_2_node_187;
  current_limit 65;
  status CLOSED;
  mean_replacement_time 3600;
}
object fuse {
  name R5_12_47_2_fuse_35;
  phases ABCN;
  from R5_12_47_2_node_293;
  to R5_12_47_2_node_201;
  current_limit 50000;
  status CLOSED;
  mean_replacement_time 3600;
}
object switch {
  name R5_12_47_2_switch_1;
// downstream 3885.17 kva on ABCS
  phases ABCN;
  from R5_12_47_2_node_49;
  to R5_12_47_2_node_224;
  status CLOSED;
}
object switch {
  name R5_12_47_2_switch_2;
  phases ABCN;
  from R5_12_47_2_node_17;
  to R5_12_47_2_node_212;
  status CLOSED;
}
object switch {
  name R5_12_47_2_switch_3;
  phases ABCN;
  from R5_12_47_2_node_67;
  to R5_12_47_2_node_313;
  status CLOSED;
}
object switch {
  name R5_12_47_2_switch_4;
// downstream 427.35 kva on ABC
  phases ABCN;
  from R5_12_47_2_node_215;
  to R5_12_47_2_node_26;
  status CLOSED;
}
object switch {
  name R5_12_47_2_switch_5;
  phases ABCN;
  from R5_12_47_2_node_24;
  to R5_12_47_2_node_214;
  status CLOSED;
}
object switch {
  name R5_12_47_2_switch_6;
  phases ABCN;
  from R5_12_47_2_node_20;
  to R5_12_47_2_node_219;
  status CLOSED;
}
object switch {
  name R5_12_47_2_switch_7;
// downstream 4035.17 kva on ABCS
  phases ABCN;
  from R5_12_47_2_node_56;
  to R5_12_47_2_node_211;
  status CLOSED;
}
object switch {