#set double_format=%+.12lg
#set profiler=1
#set randomseed=10
#set relax_naming_rules=1
#set savefile=test.xml
#set minimum_timestep=15

clock {
	timezone PST+8PDT;
	starttime '2013-07-01 00:00:00';
	stoptime '2013-07-03 00:00:00';
}

module climate;
module market;
module connection; // FNCS
module powerflow {
	solver_method FBS;
	NR_iteration_limit 100;
}
module residential {
	implicit_enduses NONE;
}
module tape;
module generators;

#include "../schedules/water_and_setpoint_schedule_v3.glm"
#include "../schedules/appliance_schedules.glm"
//#include "solar.glm"
#include "../schedules/fixed_rate_schedule_v2.glm"
#include "outputs_te.glm"

object metrics_collector_writer {
     interval 300;
     filename TE_Challenge_metrics.json;
};

object climate {
     name "RegionalWeather";
     tmyfile "../weather/AZ-Tucson_International_Ap.tmy3";
     interpolate QUADRATIC;
};

class player {
      double value;
}

object player {
    name PHASE_A;
    file "../players/phase_A.player";
    loop 1;
}
object player {
    name PHASE_B;
    file "../players/phase_B.player";
    loop 1;
}
object player {
    name PHASE_C;
    file "../players/phase_C.player";
    loop 1;
}

object transformer_configuration {
	name substation_config;
	connect_type WYE_WYE;
	install_type PADMOUNT;
	power_rating 450;
	powerA_rating 150 kVA;
	powerB_rating 150;
	powerC_rating 150;
	primary_voltage 133000;
	secondary_voltage 7200;
	impedance +0.0015+0.00675j;
}

object transformer_configuration {
	name default_transformer_A;
	connect_type SINGLE_PHASE_CENTER_TAPPED;
	install_type PADMOUNT;
	power_rating 150;
	powerA_rating 150 kVA;
	primary_voltage 7200;
	secondary_voltage 120;
	impedance +0.015+0.0675j;
}

object transformer_configuration {
	name default_transformer_B;
	connect_type SINGLE_PHASE_CENTER_TAPPED;
	install_type PADMOUNT;
	power_rating 150;
	powerB_rating 150;
	primary_voltage 7200;
	secondary_voltage 120;
	impedance +0.015+0.0675j;
}

object transformer_configuration {
	name default_transformer_C;
	connect_type SINGLE_PHASE_CENTER_TAPPED;
	install_type PADMOUNT;
	power_rating 150;
	powerC_rating 150;
	primary_voltage 7200;
	secondary_voltage 120;
	impedance +0.015+0.0675j;
}

object triplex_line_conductor {
	name Name_1_0_AA_triplex;
	resistance 0.57;
	geometric_mean_radius 0.011;
}

object triplex_line_configuration {
	name TLCFG;
	conductor_1 Name_1_0_AA_triplex;
	conductor_2 Name_1_0_AA_triplex;
	conductor_N Name_1_0_AA_triplex;
	insulation_thickness 0.08;
	diameter 0.368;
}

// this has to be a substation for the MATPOWER/PYPOWER interface
object substation {
	name network_node;
	phases ABCN;
	nominal_voltage 133000;
	positive_sequence_voltage 133000;
	bustype SWING;
  base_power 12MVA;
  power_convergence_value 100VA;
  object metrics_collector {
    interval 300;
  };
}

object fncs_msg {
     name gridlabdSimulator1;
     parent network_node;
     configure TE_Challenge_FNCS_Config.txt;
//     configure TE_Eplusonly.txt;
     option "transport:hostname localhost, port 5570";
}

object meter {
	name F1_transformer_meter;
	phases ABCN;
	nominal_voltage 7200;
}

object transformer {
	name F1_Transformer1;
	groupid F1_Network_Trans;
	phases ABCN;
	from network_node;
	to F1_transformer_meter;
	configuration substation_config;
}

object load {
     name unresp_load;
     nominal_voltage 7200;
     phases ABCN;
     parent F1_transformer_meter;
	 
     base_power_A PHASE_A.value*0.05;
     base_power_B PHASE_B.value*0.05;
     base_power_C PHASE_C.value*0.05;
	 
	 power_pf_A 0.9;
	 power_pf_B 0.9;
	 power_pf_C 0.9;
	 
	 power_fraction_A 1.0;
	 power_fraction_B 1.0;
	 power_fraction_C 1.0;
	 
	 current_fraction_A 0.0;
	 current_fraction_B 0.0;
	 current_fraction_C 0.0;
	 
	 impedance_fraction_A 0.0;
	 impedance_fraction_B 0.0;
	 impedance_fraction_C 0.0;
};

object triplex_meter {
	name F1_triplex_node_A;
	phases SA;
	nominal_voltage 120;
}

object triplex_meter {
	name F1_triplex_node_B;
	phases SB;
	nominal_voltage 120;
}

object triplex_meter {
	name F1_triplex_node_C;
	phases SC;
	nominal_voltage 120;
}

object transformer {
	name F1_center_tap_transformer_A;
	phases SA;
	from F1_transformer_meter;
	to F1_triplex_node_A;
	configuration default_transformer_A;
}

object transformer {
	name F1_center_tap_transformer_B;
	phases SB;
	from F1_transformer_meter;
	to F1_triplex_node_B;
	configuration default_transformer_B;
}

object transformer {
	name F1_center_tap_transformer_C;
	phases SC;
	from F1_transformer_meter;
	to F1_triplex_node_C;
	configuration default_transformer_C;
}

object triplex_meter {
	name F1_tpm_flatrate_B0;
	groupid F1_flatrate_meter;
	phases SB;
	nominal_voltage 120;
	bill_mode TIERED;
    price FIXED_PRICE;
    first_tier_price FIXED_TIER1;
    second_tier_price FIXED_TIER2;
    third_tier_price FIXED_TIER3;
    first_tier_energy 800;
    second_tier_energy 2000;
    third_tier_energy 15000;
    bill_day 1;
    monthly_fee 6;
}

object triplex_line {
	groupid F1_Triplex_Line;
	phases SB;
	from F1_triplex_node_B;
	to F1_tpm_flatrate_B0;
	length 10 ft;
	configuration TLCFG;
}

object triplex_meter {
	name F1_tpm_rt_B0;
	groupid F1_rt_meter;
	parent F1_tpm_flatrate_B0;
	phases SB;
	nominal_voltage 120;
	bill_mode TIERED;
    bill_day 1;
    monthly_fee 6;
    price FIXED_PRICE;
    first_tier_price FIXED_TIER1;
    second_tier_price FIXED_TIER2;
    third_tier_price FIXED_TIER3;
    first_tier_energy 800;
    second_tier_energy 2000;
    third_tier_energy 15000;
      object metrics_collector {
          interval 300;
      };
}

object house {
	name F1_house_B0;
	parent F1_tpm_rt_B0;
	schedule_skew 577;
	Rroof 17.618;
	Rwall 6.872;
	Rfloor 4.818;
	Rdoors 3;
	Rwindows 1.315;
	airchange_per_hour 1.288;
	hvac_power_factor 0.97;
	cooling_system_type ELECTRIC;
	heating_system_type GAS;
	fan_type ONE_SPEED;
	hvac_breaker_rating 200;
	total_thermal_mass_per_floor_area 4.311;
	motor_efficiency AVERAGE;
	motor_model BASIC;
	cooling_COP 2.502;
	floor_area 637.886;
	number_of_doors 1;
	air_temperature 68.886;
	mass_temperature 68.886;
	heating_setpoint heating5*1.043+1.41;
object ZIPload {
	schedule_skew 577;
	heat_fraction 0.889;
	base_power LIGHTS*1.7284;
	power_pf 0;
	power_fraction 0;
	current_pf 0;
	current_fraction 0;
	impedance_pf 1;
	impedance_fraction 1;
};
object ZIPload {
	schedule_skew 577;
	heat_fraction 0.732;
	base_power CLOTHESWASHER*0.9135;
	power_pf 0.97;
	power_fraction 1;
	current_pf 0.97;
	current_fraction 0;
	impedance_pf 0.97;
	impedance_fraction 0;
};
object ZIPload {
	schedule_skew 577;
	heat_fraction 0.853;
	base_power REFRIGERATOR*0.8837;
	power_pf 0.97;
	power_fraction 1;
	current_pf 0.97;
	current_fraction 0;
	impedance_pf 0.97;
	impedance_fraction 0;
};
object ZIPload {
	schedule_skew 577;
	heat_fraction 0.875;
	base_power DRYER*0.5453;
	power_pf 0.9;
	power_fraction 0.1;
	current_pf 0.9;
	current_fraction 0.1;
	impedance_pf 1;
	impedance_fraction 0.8;
};
object ZIPload {
	schedule_skew 577;
	heat_fraction 0.76;
	base_power RANGE*0.6705;
	power_pf 0;
	power_fraction 0;
	current_pf 0;
	current_fraction 0;
	impedance_pf 1;
	impedance_fraction 1;
};
object ZIPload {
	schedule_skew 577;
	heat_fraction 0.951;
	base_power MICROWAVE*0.7977;
	power_pf 0.97;
	power_fraction 1;
	current_pf 0.97;
	current_fraction 0;
	impedance_pf 0.97;
	impedance_fraction 0;
};
 object metrics_collector {
  interval 300;
 };
}

object triplex_meter {
	name F1_tpm_flatrate_C1;
	groupid F1_flatrate_meter;
	phases SC;
	nominal_voltage 120;
		bill_mode TIERED;
    price FIXED_PRICE;
    first_tier_price FIXED_TIER1;
    second_tier_price FIXED_TIER2;
    third_tier_price FIXED_TIER3;
    first_tier_energy 800;
    second_tier_energy 2000;
    third_tier_energy 15000;
    bill_day 1;
    monthly_fee 6;
}

object triplex_line {
	groupid F1_Triplex_Line;
	phases SC;
	from F1_triplex_node_C;
	to F1_tpm_flatrate_C1;
	length 10 ft;
	configuration TLCFG;
}

object triplex_meter {
	name F1_tpm_rt_C1;
	groupid F1_rt_meter;
	parent F1_tpm_flatrate_C1;
	phases SC;
	nominal_voltage 120;
	bill_mode TIERED;
    bill_day 1;
    monthly_fee 6;
    price FIXED_PRICE;
    first_tier_price FIXED_TIER1;
    second_tier_price FIXED_TIER2;
    third_tier_price FIXED_TIER3;
    first_tier_energy 800;
    second_tier_energy 2000;
    third_tier_energy 15000;
      object metrics_collector {
          interval 300;
      };
}

object house {
	name F1_house_C1;
	parent F1_tpm_rt_C1;
	schedule_skew -745;
	Rroof 33.903;
	Rwall 20.296;
	Rfloor 12.58;
	Rdoors 5;
	Rwindows 1.664;
	airchange_per_hour 0.946;
	hvac_power_factor 0.97;
	cooling_system_type ELECTRIC;
	heating_system_type GAS;
	fan_type ONE_SPEED;
	hvac_breaker_rating 200;
	total_thermal_mass_per_floor_area 4.581;
	motor_efficiency AVERAGE;
	motor_model BASIC;
	cooling_COP 3.421;
	floor_area 1094.925;
	number_of_doors 2;
	air_temperature 71.924;
	mass_temperature 71.924;
	heating_setpoint heating2*0.964+0.50;
object ZIPload {
	schedule_skew -745;
	heat_fraction 0.929;
	base_power LIGHTS*2.0313;
	power_pf -0.78;
	power_fraction 0.6;
	current_pf 0.42;
	current_fraction 0;
	impedance_pf -0.88;
	impedance_fraction 0.4;
};
object ZIPload {
	schedule_skew -745;
	heat_fraction 0.751;
	base_power CLOTHESWASHER*0.4040;
	power_pf 0.97;
	power_fraction 1;
	current_pf 0.97;
	current_fraction 0;
	impedance_pf 0.97;
	impedance_fraction 0;
};
object ZIPload {
	schedule_skew -745;
	heat_fraction 0.74;
	base_power REFRIGERATOR*0.4258;
	power_pf 0.97;
	power_fraction 1;
	current_pf 0.97;
	current_fraction 0;
	impedance_pf 0.97;
	impedance_fraction 0;
};
object ZIPload {
	schedule_skew -745;
	heat_fraction 0.915;
	base_power DRYER*0.5606;
	power_pf 0.9;
	power_fraction 0.1;
	current_pf 0.9;
	current_fraction 0.1;
	impedance_pf 1;
	impedance_fraction 0.8;
};
object ZIPload {
	schedule_skew -745;
	heat_fraction 0.864;
	base_power DISHWASHER*0.7450;
	power_pf 0.97;
	power_fraction 1;
	current_pf 0.97;
	current_fraction 0;
	impedance_pf 0.97;
	impedance_fraction 0;
};
object ZIPload {
	schedule_skew -745;
	heat_fraction 0.704;
	base_power RANGE*1.1280;
	power_pf 0;
	power_fraction 0;
	current_pf 0;
	current_fraction 0;
	impedance_pf 1;
	impedance_fraction 1;
};
object ZIPload {
	schedule_skew -745;
	heat_fraction 0.841;
	base_power MICROWAVE*0.9960;
	power_pf 0.97;
	power_fraction 1;
	current_pf 0.97;
	current_fraction 0;
	impedance_pf 0.97;
	impedance_fraction 0;
};
 object metrics_collector {
  interval 300;
 };
}

object triplex_meter {
	name F1_tpm_flatrate_C2;
	groupid F1_flatrate_meter;
	phases SC;
	nominal_voltage 120;
	bill_mode TIERED;
    price FIXED_PRICE;
    first_tier_price FIXED_TIER1;
    second_tier_price FIXED_TIER2;
    third_tier_price FIXED_TIER3;
    first_tier_energy 800;
    second_tier_energy 2000;
    third_tier_energy 15000;
    bill_day 1;
    monthly_fee 6;
}

object triplex_line {
	groupid F1_Triplex_Line;
	phases SC;
	from F1_triplex_node_C;
	to F1_tpm_flatrate_C2;
	length 10 ft;
	configuration TLCFG;
}

object triplex_meter {
	name F1_tpm_rt_C2;
	groupid F1_rt_meter;
	parent F1_tpm_flatrate_C2;
	phases SC;
	nominal_voltage 120;
	bill_mode TIERED;
    bill_day 1;
    monthly_fee 6;
    price FIXED_PRICE;
    first_tier_price FIXED_TIER1;
    second_tier_price FIXED_TIER2;
    third_tier_price FIXED_TIER3;
    first_tier_energy 800;
    second_tier_energy 2000;
    third_tier_energy 15000;
      object metrics_collector {
          interval 300;
      };
}

object house {
	name F1_house_C2;
	parent F1_tpm_rt_C2;
	schedule_skew -1065;
	Rroof 22.324;
	Rwall 13.948;
	Rfloor 10.588;
	Rdoors 3;
	Rwindows 1.158;
	airchange_per_hour 1.017;
	hvac_power_factor 0.97;
	cooling_system_type ELECTRIC;
	heating_system_type GAS;
	fan_type ONE_SPEED;
	hvac_breaker_rating 200;
	total_thermal_mass_per_floor_area 3.24;
	motor_efficiency AVERAGE;
	motor_model BASIC;
	cooling_COP 3.317;
	floor_area 618.015;
	number_of_doors 1;
	air_temperature 68.511;
	mass_temperature 68.511;
	heating_setpoint heating3*1.019+1.33;
object ZIPload {
	schedule_skew -1065;
	heat_fraction 0.943;
	base_power LIGHTS*1.2858;
	power_pf 0;
	power_fraction 0;
	current_pf 0;
	current_fraction 0;
	impedance_pf 1;
	impedance_fraction 1;
};
object ZIPload {
	schedule_skew -1065;
	heat_fraction 0.796;
	base_power CLOTHESWASHER*0.5579;
	power_pf 0.97;
	power_fraction 1;
	current_pf 0.97;
	current_fraction 0;
	impedance_pf 0.97;
	impedance_fraction 0;
};
object ZIPload {
	schedule_skew -1065;
	heat_fraction 0.873;
	base_power REFRIGERATOR*0.6902;
	power_pf 0.97;
	power_fraction 1;
	current_pf 0.97;
	current_fraction 0;
	impedance_pf 0.97;
	impedance_fraction 0;
};
object ZIPload {
	schedule_skew -1065;
	heat_fraction 0.869;
	base_power DRYER*0.8551;
	power_pf 0.9;
	power_fraction 0.1;
	current_pf 0.9;
	current_fraction 0.1;
	impedance_pf 1;
	impedance_fraction 0.8;
};
object ZIPload {
	schedule_skew -1065;
	heat_fraction 0.931;
	base_power RANGE*0.5889;
	power_pf 0;
	power_fraction 0;
	current_pf 0;
	current_fraction 0;
	impedance_pf 1;
	impedance_fraction 1;
};
object ZIPload {
	schedule_skew -1065;
	heat_fraction 0.695;
	base_power MICROWAVE*0.5648;
	power_pf 0.97;
	power_fraction 1;
	current_pf 0.97;
	current_fraction 0;
	impedance_pf 0.97;
	impedance_fraction 0;
};
 object metrics_collector {
  interval 300;
 };
}

object triplex_meter {
	name F1_tpm_flatrate_B3;
	groupid F1_flatrate_meter;
	phases SB;
	nominal_voltage 120;
	bill_mode TIERED;
    price FIXED_PRICE;
    first_tier_price FIXED_TIER1;
    second_tier_price FIXED_TIER2;
    third_tier_price FIXED_TIER3;
    first_tier_energy 800;
    second_tier_energy 2000;
    third_tier_energy 15000;
    bill_day 1;
    monthly_fee 6;
}

object triplex_line {
	groupid F1_Triplex_Line;
	phases SB;
	from F1_triplex_node_B;
	to F1_tpm_flatrate_B3;
	length 10 ft;
	configuration TLCFG;
}

object triplex_meter {
	name F1_tpm_rt_B3;
	groupid F1_rt_meter;
	parent F1_tpm_flatrate_B3;
	phases SB;
	nominal_voltage 120;
	bill_mode TIERED;
    bill_day 1;
    monthly_fee 6;
    price FIXED_PRICE;
    first_tier_price FIXED_TIER1;
    second_tier_price FIXED_TIER2;
    third_tier_price FIXED_TIER3;
    first_tier_energy 800;
    second_tier_energy 2000;
    third_tier_energy 15000;
      object metrics_collector {
          interval 300;
      };
}

object house {
	name F1_house_B3;
	parent F1_tpm_rt_B3;
	schedule_skew -655;
	Rroof 25.066;
	Rwall 18.122;
	Rfloor 17.734;
	Rdoors 5;
	Rwindows 1.428;
	airchange_per_hour 0.88;
	hvac_power_factor 0.97;
	cooling_system_type ELECTRIC;
	heating_system_type GAS;
	fan_type ONE_SPEED;
	hvac_breaker_rating 200;
	total_thermal_mass_per_floor_area 3.503;
	motor_efficiency AVERAGE;
	motor_model BASIC;
	cooling_COP 3.523;
	floor_area 2971.712;
	number_of_doors 3;
	air_temperature 69.055;
	mass_temperature 69.055;
	heating_setpoint heating4*0.958+1.61;
object ZIPload {
	schedule_skew -655;
	heat_fraction 0.916;
	base_power LIGHTS*1.8651;
	power_pf 0;
	power_fraction 0;
	current_pf 0;
	current_fraction 0;
	impedance_pf 1;
	impedance_fraction 1;
};
object ZIPload {
	schedule_skew -655;
	heat_fraction 0.809;
	base_power CLOTHESWASHER*1.0153;
	power_pf 0.97;
	power_fraction 1;
	current_pf 0.97;
	current_fraction 0;
	impedance_pf 0.97;
	impedance_fraction 0;
};
object ZIPload {
	schedule_skew -655;
	heat_fraction 0.916;
	base_power REFRIGERATOR*1.7091;
	power_pf 0.97;
	power_fraction 1;
	current_pf 0.97;
	current_fraction 0;
	impedance_pf 0.97;
	impedance_fraction 0;
};
object ZIPload {
	schedule_skew -655;
	heat_fraction 0.746;
	base_power DRYER*0.7780;
	power_pf 0.9;
	power_fraction 0.1;
	current_pf 0.9;
	current_fraction 0.1;
	impedance_pf 1;
	impedance_fraction 0.8;
};
object ZIPload {
	schedule_skew -655;
	heat_fraction 0.776;
	base_power FREEZER*0.9835;
	power_pf 0.97;
	power_fraction 1;
	current_pf 0.97;
	current_fraction 0;
	impedance_pf 0.97;
	impedance_fraction 0;
};
object ZIPload {
	schedule_skew -655;
	heat_fraction 0.646;
	base_power DISHWASHER*0.9828;
	power_pf 0.97;
	power_fraction 1;
	current_pf 0.97;
	current_fraction 0;
	impedance_pf 0.97;
	impedance_fraction 0;
};
object ZIPload {
	schedule_skew -655;
	heat_fraction 0.647;
	base_power RANGE*0.6574;
	power_pf 0;
	power_fraction 0;
	current_pf 0;
	current_fraction 0;
	impedance_pf 1;
	impedance_fraction 1;
};
object ZIPload {
	schedule_skew -655;
	heat_fraction 0.878;
	base_power MICROWAVE*1.0249;
	power_pf 0.97;
	power_fraction 1;
	current_pf 0.97;
	current_fraction 0;
	impedance_pf 0.97;
	impedance_fraction 0;
};
 object metrics_collector {
  interval 300;
 };
}

object triplex_meter {
	name F1_tpm_flatrate_B4;
	groupid F1_flatrate_meter;
	phases SB;
	nominal_voltage 120;
	bill_mode TIERED;
    price FIXED_PRICE;
    first_tier_price FIXED_TIER1;
    second_tier_price FIXED_TIER2;
    third_tier_price FIXED_TIER3;
    first_tier_energy 800;
    second_tier_energy 2000;
    third_tier_energy 15000;
    bill_day 1;
    monthly_fee 6;
}

object triplex_line {
	groupid F1_Triplex_Line;
	phases SB;
	from F1_triplex_node_B;
	to F1_tpm_flatrate_B4;
	length 10 ft;
	configuration TLCFG;
}

object triplex_meter {
	name F1_tpm_rt_B4;
	groupid F1_rt_meter;
	parent F1_tpm_flatrate_B4;
	phases SB;
	nominal_voltage 120;
	bill_mode TIERED;
    bill_day 1;
    monthly_fee 6;
    price FIXED_PRICE;
    first_tier_price FIXED_TIER1;
    second_tier_price FIXED_TIER2;
    third_tier_price FIXED_TIER3;
    first_tier_energy 800;
    second_tier_energy 2000;
    third_tier_energy 15000;
      object metrics_collector {
          interval 300;
      };
}

object house {
	name F1_house_B4;
	parent F1_tpm_rt_B4;
	schedule_skew -888;
	Rroof 27.921;
	Rwall 21.208;
	Rfloor 13.138;
	Rdoors 5;
	Rwindows 1.386;
	airchange_per_hour 1.156;
	hvac_power_factor 0.97;
	cooling_system_type ELECTRIC;
	heating_system_type GAS;
	fan_type ONE_SPEED;
	hvac_breaker_rating 200;
	total_thermal_mass_per_floor_area 4.82;
	motor_efficiency AVERAGE;
	motor_model BASIC;
	cooling_COP 3.54;
	floor_area 1476.721;
	number_of_doors 2;
	air_temperature 70.019;
	mass_temperature 70.019;
	heating_setpoint heating7*0.978+1.33;
object ZIPload {
	schedule_skew -888;
	heat_fraction 0.918;
	base_power LIGHTS*1.4554;
	power_pf -0.78;
	power_fraction 0.6;
	current_pf 0.42;
	current_fraction 0;
	impedance_pf -0.88;
	impedance_fraction 0.4;
};
object ZIPload {
	schedule_skew -888;
	heat_fraction 0.83;
	base_power CLOTHESWASHER*1.2004;
	power_pf 0.97;
	power_fraction 1;
	current_pf 0.97;
	current_fraction 0;
	impedance_pf 0.97;
	impedance_fraction 0;
};
object ZIPload {
	schedule_skew -888;
	heat_fraction 0.765;
	base_power REFRIGERATOR*0.8814;
	power_pf 0.97;
	power_fraction 1;
	current_pf 0.97;
	current_fraction 0;
	impedance_pf 0.97;
	impedance_fraction 0;
};
object ZIPload {
	schedule_skew -888;
	heat_fraction 0.692;
	base_power DRYER*1.1884;
	power_pf 0.9;
	power_fraction 0.1;
	current_pf 0.9;
	current_fraction 0.1;
	impedance_pf 1;
	impedance_fraction 0.8;
};
object ZIPload {
	schedule_skew -888;
	heat_fraction 0.906;
	base_power RANGE*0.9186;
	power_pf 0;
	power_fraction 0;
	current_pf 0;
	current_fraction 0;
	impedance_pf 1;
	impedance_fraction 1;
};
object ZIPload {
	schedule_skew -888;
	heat_fraction 0.8;
	base_power MICROWAVE*0.4692;
	power_pf 0.97;
	power_fraction 1;
	current_pf 0.97;
	current_fraction 0;
	impedance_pf 0.97;
	impedance_fraction 0;
};
 object metrics_collector {
  interval 300;
 };
}

object triplex_meter {
	name F1_tpm_flatrate_A5;
	groupid F1_flatrate_meter;
	phases SA;
	nominal_voltage 120;
	bill_mode TIERED;
    price FIXED_PRICE;
    first_tier_price FIXED_TIER1;
    second_tier_price FIXED_TIER2;
    third_tier_price FIXED_TIER3;
    first_tier_energy 800;
    second_tier_energy 2000;
    third_tier_energy 15000;
    bill_day 1;
    monthly_fee 6;
}

object triplex_line {
	groupid F1_Triplex_Line;
	phases SA;
	from F1_triplex_node_A;
	to F1_tpm_flatrate_A5;
	length 10 ft;
	configuration TLCFG;
}

object triplex_meter {
	name F1_tpm_rt_A5;
	groupid F1_rt_meter;
	parent F1_tpm_flatrate_A5;
	phases SA;
	nominal_voltage 120;
	bill_mode TIERED;
    bill_day 1;
    monthly_fee 6;
    price FIXED_PRICE;
    first_tier_price FIXED_TIER1;
    second_tier_price FIXED_TIER2;
    third_tier_price FIXED_TIER3;
    first_tier_energy 800;
    second_tier_energy 2000;
    third_tier_energy 15000;
      object metrics_collector {
          interval 300;
      };
}

object house {
	name F1_house_A5;
	parent F1_tpm_rt_A5;
	schedule_skew 350;
	Rroof 27.117;
	Rwall 20.54;
	Rfloor 16.722;
	Rdoors 5;
	Rwindows 1.81;
	airchange_per_hour 0.977;
	hvac_power_factor 0.97;
	cooling_system_type ELECTRIC;
	heating_system_type GAS;
	fan_type ONE_SPEED;
	hvac_breaker_rating 200;
	total_thermal_mass_per_floor_area 3.509;
	motor_efficiency AVERAGE;
	motor_model BASIC;
	cooling_COP 3.481;
	floor_area 1067.468;
	number_of_doors 2;
	air_temperature 68.735;
	mass_temperature 68.735;
	heating_setpoint heating6*0.961+1.26;
object ZIPload {
	schedule_skew 350;
	heat_fraction 0.899;
	base_power LIGHTS*2.2150;
	power_pf -0.78;
	power_fraction 0.6;
	current_pf 0.42;
	current_fraction 0;
	impedance_pf -0.88;
	impedance_fraction 0.4;
};
object ZIPload {
	schedule_skew 350;
	heat_fraction 0.721;
	base_power CLOTHESWASHER*0.8887;
	power_pf 0.97;
	power_fraction 1;
	current_pf 0.97;
	current_fraction 0;
	impedance_pf 0.97;
	impedance_fraction 0;
};
object ZIPload {
	schedule_skew 350;
	heat_fraction 0.699;
	base_power REFRIGERATOR*1.1846;
	power_pf 0.97;
	power_fraction 1;
	current_pf 0.97;
	current_fraction 0;
	impedance_pf 0.97;
	impedance_fraction 0;
};
object ZIPload {
	schedule_skew 350;
	heat_fraction 0.827;
	base_power DRYER*1.1192;
	power_pf 0.9;
	power_fraction 0.1;
	current_pf 0.9;
	current_fraction 0.1;
	impedance_pf 1;
	impedance_fraction 0.8;
};
object ZIPload {
	schedule_skew 350;
	heat_fraction 0.661;
	base_power RANGE*0.5108;
	power_pf 0;
	power_fraction 0;
	current_pf 0;
	current_fraction 0;
	impedance_pf 1;
	impedance_fraction 1;
};
object ZIPload {
	schedule_skew 350;
	heat_fraction 0.812;
	base_power MICROWAVE*0.9636;
	power_pf 0.97;
	power_fraction 1;
	current_pf 0.97;
	current_fraction 0;
	impedance_pf 0.97;
	impedance_fraction 0;
};
 object metrics_collector {
  interval 300;
 };
}

object triplex_meter {
	name F1_tpm_flatrate_B6;
	groupid F1_flatrate_meter;
	phases SB;
	nominal_voltage 120;
	bill_mode TIERED;
    price FIXED_PRICE;
    first_tier_price FIXED_TIER1;
    second_tier_price FIXED_TIER2;
    third_tier_price FIXED_TIER3;
    first_tier_energy 800;
    second_tier_energy 2000;
    third_tier_energy 15000;
    bill_day 1;
    monthly_fee 6;
}

object triplex_line {
	groupid F1_Triplex_Line;
	phases SB;
	from F1_triplex_node_B;
	to F1_tpm_flatrate_B6;
	length 10 ft;
	configuration TLCFG;
}

object triplex_meter {
	name F1_tpm_rt_B6;
	groupid F1_rt_meter;
	parent F1_tpm_flatrate_B6;
	phases SB;
	nominal_voltage 120;
	bill_mode TIERED;
    bill_day 1;
    monthly_fee 6;
    price FIXED_PRICE;
    first_tier_price FIXED_TIER1;
    second_tier_price FIXED_TIER2;
    third_tier_price FIXED_TIER3;
    first_tier_energy 800;
    second_tier_energy 2000;
    third_tier_energy 15000;
      object metrics_collector {
          interval 300;
      };
}

object house {
	name F1_house_B6;
	parent F1_tpm_rt_B6;
	schedule_skew 100;
	Rroof 27.866;
	Rwall 20.734;
	Rfloor 14.831;
	Rdoors 5;
	Rwindows 1.408;
	airchange_per_hour 1.084;
	hvac_power_factor 0.97;
	cooling_system_type ELECTRIC;
	heating_system_type GAS;
	fan_type ONE_SPEED;
	hvac_breaker_rating 200;
	total_thermal_mass_per_floor_area 3.088;
	motor_efficiency AVERAGE;
	motor_model BASIC;
	cooling_COP 3.544;
	floor_area 1434.683;
	number_of_doors 2;
	air_temperature 70.269;
	mass_temperature 70.269;
	heating_setpoint heating2*1.026+0.16;
object ZIPload {
	schedule_skew 100;
	heat_fraction 0.874;
	base_power LIGHTS*1.8722;
	power_pf 0;
	power_fraction 0;
	current_pf 0;
	current_fraction 0;
	impedance_pf 1;
	impedance_fraction 1;
};
object ZIPload {
	schedule_skew 100;
	heat_fraction 0.737;
	base_power CLOTHESWASHER*1.0593;
	power_pf 0.97;
	power_fraction 1;
	current_pf 0.97;
	current_fraction 0;
	impedance_pf 0.97;
	impedance_fraction 0;
};
object ZIPload {
	schedule_skew 100;
	heat_fraction 0.937;
	base_power REFRIGERATOR*1.2533;
	power_pf 0.97;
	power_fraction 1;
	current_pf 0.97;
	current_fraction 0;
	impedance_pf 0.97;
	impedance_fraction 0;
};
object ZIPload {
	schedule_skew 100;
	heat_fraction 0.733;
	base_power DRYER*0.9076;
	power_pf 0.9;
	power_fraction 0.1;
	current_pf 0.9;
	current_fraction 0.1;
	impedance_pf 1;
	impedance_fraction 0.8;
};
object ZIPload {
	schedule_skew 100;
	heat_fraction 0.906;
	base_power DISHWASHER*0.9959;
	power_pf 0.97;
	power_fraction 1;
	current_pf 0.97;
	current_fraction 0;
	impedance_pf 0.97;
	impedance_fraction 0;
};
object ZIPload {
	schedule_skew 100;
	heat_fraction 0.885;
	base_power RANGE*0.9538;
	power_pf 0;
	power_fraction 0;
	current_pf 0;
	current_fraction 0;
	impedance_pf 1;
	impedance_fraction 1;
};
object ZIPload {
	schedule_skew 100;
	heat_fraction 0.707;
	base_power MICROWAVE*0.4764;
	power_pf 0.97;
	power_fraction 1;
	current_pf 0.97;
	current_fraction 0;
	impedance_pf 0.97;
	impedance_fraction 0;
};
 object metrics_collector {
  interval 300;
 };
}

object triplex_meter {
	name F1_tpm_flatrate_B7;
	groupid F1_flatrate_meter;
	phases SB;
	nominal_voltage 120;	
	bill_mode TIERED;
    price FIXED_PRICE;
    first_tier_price FIXED_TIER1;
    second_tier_price FIXED_TIER2;
    third_tier_price FIXED_TIER3;
    first_tier_energy 800;
    second_tier_energy 2000;
    third_tier_energy 15000;
    bill_day 1;
    monthly_fee 6;
}

object triplex_line {
	groupid F1_Triplex_Line;
	phases SB;
	from F1_triplex_node_B;
	to F1_tpm_flatrate_B7;
	length 10 ft;
	configuration TLCFG;
}

object triplex_meter {
	name F1_tpm_rt_B7;
	groupid F1_rt_meter;
	parent F1_tpm_flatrate_B7;
	phases SB;
	nominal_voltage 120;
	bill_mode TIERED;
    bill_day 1;
    monthly_fee 6;
    price FIXED_PRICE;
    first_tier_price FIXED_TIER1;
    second_tier_price FIXED_TIER2;
    third_tier_price FIXED_TIER3;
    first_tier_energy 800;
    second_tier_energy 2000;
    third_tier_energy 15000;
      object metrics_collector {
          interval 300;
      };
}

object house {
	name F1_house_B7;
	parent F1_tpm_rt_B7;
	schedule_skew -473;
	Rroof 31.031;
	Rwall 19.501;
	Rfloor 12.947;
	Rdoors 5;
	Rwindows 1.334;
	airchange_per_hour 0.829;
	hvac_power_factor 0.97;
	cooling_system_type ELECTRIC;
	heating_system_type GAS;
	fan_type ONE_SPEED;
	hvac_breaker_rating 200;
	total_thermal_mass_per_floor_area 3.566;
	motor_efficiency AVERAGE;
	motor_model BASIC;
	cooling_COP 4.109;
	floor_area 1302.331;
	number_of_doors 2;
	air_temperature 69.696;
	mass_temperature 69.696;
	heating_setpoint heating8*1.036+2.91;
object ZIPload {
	schedule_skew -473;
	heat_fraction 0.727;
	base_power LIGHTS*1.8118;
	power_pf 0;
	power_fraction 0;
	current_pf 0;
	current_fraction 0;
	impedance_pf 1;
	impedance_fraction 1;
};
object ZIPload {
	schedule_skew -473;
	heat_fraction 0.863;
	base_power CLOTHESWASHER*0.4608;
	power_pf 0.97;
	power_fraction 1;
	current_pf 0.97;
	current_fraction 0;
	impedance_pf 0.97;
	impedance_fraction 0;
};
object ZIPload {
	schedule_skew -473;
	heat_fraction 0.89;
	base_power REFRIGERATOR*1.0213;
	power_pf 0.97;
	power_fraction 1;
	current_pf 0.97;
	current_fraction 0;
	impedance_pf 0.97;
	impedance_fraction 0;
};
object ZIPload {
	schedule_skew -473;
	heat_fraction 0.87;
	base_power DRYER*0.6613;
	power_pf 0.9;
	power_fraction 0.1;
	current_pf 0.9;
	current_fraction 0.1;
	impedance_pf 1;
	impedance_fraction 0.8;
};
object ZIPload {
	schedule_skew -473;
	heat_fraction 0.83;
	base_power RANGE*1.0347;
	power_pf 0;
	power_fraction 0;
	current_pf 0;
	current_fraction 0;
	impedance_pf 1;
	impedance_fraction 1;
};
object ZIPload {
	schedule_skew -473;
	heat_fraction 0.865;
	base_power MICROWAVE*1.0783;
	power_pf 0.97;
	power_fraction 1;
	current_pf 0.97;
	current_fraction 0;
	impedance_pf 0.97;
	impedance_fraction 0;
};
 object metrics_collector {
  interval 300;
 };
}

object triplex_meter {
	name F1_tpm_flatrate_A8;
	groupid F1_flatrate_meter;
	phases SA;
	nominal_voltage 120;
	bill_mode TIERED;
    price FIXED_PRICE;
    first_tier_price FIXED_TIER1;
    second_tier_price FIXED_TIER2;
    third_tier_price FIXED_TIER3;
    first_tier_energy 800;
    second_tier_energy 2000;
    third_tier_energy 15000;
    bill_day 1;
    monthly_fee 6;
}

object triplex_line {
	groupid F1_Triplex_Line;
	phases SA;
	from F1_triplex_node_A;
	to F1_tpm_flatrate_A8;
	length 10 ft;
	configuration TLCFG;
}

object triplex_meter {
	name F1_tpm_rt_A8;
	groupid F1_rt_meter;
	parent F1_tpm_flatrate_A8;
	phases SA;
	nominal_voltage 120;
	bill_mode TIERED;
    bill_day 1;
    monthly_fee 6;
    price FIXED_PRICE;
    first_tier_price FIXED_TIER1;
    second_tier_price FIXED_TIER2;
    third_tier_price FIXED_TIER3;
    first_tier_energy 800;
    second_tier_energy 2000;
    third_tier_energy 15000;
      object metrics_collector {
          interval 300;
      };
}

object house {
	name F1_house_A8;
	parent F1_tpm_rt_A8;
	schedule_skew -496;
	Rroof 17.496;
	Rwall 5.723;
	Rfloor 4.974;
	Rdoors 3;
	Rwindows 1.407;
	airchange_per_hour 1.357;
	hvac_power_factor 0.97;
	cooling_system_type ELECTRIC;
	heating_system_type GAS;
	fan_type ONE_SPEED;
	hvac_breaker_rating 200;
	total_thermal_mass_per_floor_area 3.379;
	motor_efficiency AVERAGE;
	motor_model BASIC;
	cooling_COP 2.552;
	floor_area 870.493;
	number_of_doors 1;
	air_temperature 70.582;
	mass_temperature 70.582;
	heating_setpoint heating5*0.960+1.18;
object ZIPload {
	schedule_skew -496;
	heat_fraction 0.86;
	base_power LIGHTS*0.8293;
	power_pf -0.78;
	power_fraction 0.6;
	current_pf 0.42;
	current_fraction 0;
	impedance_pf -0.88;
	impedance_fraction 0.4;
};
object ZIPload {
	schedule_skew -496;
	heat_fraction 0.687;
	base_power CLOTHESWASHER*0.9734;
	power_pf 0.97;
	power_fraction 1;
	current_pf 0.97;
	current_fraction 0;
	impedance_pf 0.97;
	impedance_fraction 0;
};
object ZIPload {